                                  MODFLOW-NWT-SWR1 
      U.S. GEOLOGICAL SURVEY MODULAR FINITE-DIFFERENCE GROUNDWATER-FLOW MODEL
                            VERSION 1.2.0 03/01/2020
                    BASED ON MODFLOW-2005 VERSION 1.12.00 02/03/2017

 LIST FILE: ..\output\modflow\sagehen_pond.list
                         UNIT    7

 OPENING ..\input\modflow\sagehen.bas
 FILE TYPE:BAS6   UNIT    8   STATUS:OLD    
 FORMAT:FORMATTED              ACCESS:SEQUENTIAL          

 OPENING ..\input\modflow\sagehen.oc
 FILE TYPE:OC   UNIT    9   STATUS:OLD    
 FORMAT:FORMATTED              ACCESS:SEQUENTIAL          

 OPENING ..\input\modflow\sagehen.dis
 FILE TYPE:DIS   UNIT   11   STATUS:OLD    
 FORMAT:FORMATTED              ACCESS:SEQUENTIAL          

 OPENING ..\input\modflow\sagehen.UPW
 FILE TYPE:UPW   UNIT   12   STATUS:OLD    
 FORMAT:FORMATTED              ACCESS:SEQUENTIAL          

 OPENING ..\input\modflow\sagehen.uzf
 FILE TYPE:UZF   UNIT   14   STATUS:OLD    
 FORMAT:FORMATTED              ACCESS:SEQUENTIAL          

 OPENING ..\input\modflow\sagehen.sfr
 FILE TYPE:SFR   UNIT   15   STATUS:OLD    
 FORMAT:FORMATTED              ACCESS:SEQUENTIAL          

 OPENING ..\input\modflow\sagehen.nwt
 FILE TYPE:NWT   UNIT   17   STATUS:OLD    
 FORMAT:FORMATTED              ACCESS:SEQUENTIAL          

 OPENING ..\input\modflow\sagehen.ag
 FILE TYPE:AG   UNIT   20   STATUS:OLD    
 FORMAT:FORMATTED              ACCESS:SEQUENTIAL          

 OPENING ..\input\modflow\sagehen.gag
 FILE TYPE:GAGE   UNIT   21   STATUS:OLD    
 FORMAT:FORMATTED              ACCESS:SEQUENTIAL          
#                                                                                                                                                                                                                                                                                                           
# TabFiles                                                                                                                                                                                                                                                                                                  
#                                                                                                                                                                                                                                                                                                           

 OPENING ..\input\modflow\seg18_tab.txt
 FILE TYPE:DATA   UNIT   53   STATUS:UNKNOWN
 FORMAT:FORMATTED              ACCESS:SEQUENTIAL          

 OPENING ..\input\modflow\seg19_tab.txt
 FILE TYPE:DATA   UNIT   54   STATUS:UNKNOWN
 FORMAT:FORMATTED              ACCESS:SEQUENTIAL          
#                                                                                                                                                                                                                                                                                                           
#                                                                                                                                                                                                                                                                                                           
#                                                                                                                                                                                                                                                                                                           
# Output                                                                                                                                                                                                                                                                                                    
#                                                                                                                                                                                                                                                                                                           

 OPENING ..\output\modflow\head_sagehen_pond.out
 FILE TYPE:DATA   UNIT   58   STATUS:UNKNOWN
 FORMAT:FORMATTED              ACCESS:SEQUENTIAL          

 OPENING ..\output\modflow\sagehen_seg18.out
 FILE TYPE:DATA   UNIT   65   STATUS:UNKNOWN
 FORMAT:FORMATTED              ACCESS:SEQUENTIAL          

 OPENING ..\output\modflow\sagehen_seg19.out
 FILE TYPE:DATA   UNIT   66   STATUS:UNKNOWN
 FORMAT:FORMATTED              ACCESS:SEQUENTIAL          

 OPENING ..\output\modflow\uz_tot_sagehen_pond.out
 FILE TYPE:DATA   UNIT   68   STATUS:UNKNOWN
 FORMAT:FORMATTED              ACCESS:SEQUENTIAL          

 OPENING ..\output\modflow\sagehen_pond.out
 FILE TYPE:DATA   UNIT  103   STATUS:UNKNOWN
 FORMAT:FORMATTED              ACCESS:SEQUENTIAL          

 OPENING ..\output\modflow\sagehen_pondET.out
 FILE TYPE:DATA   UNIT  104   STATUS:UNKNOWN
 FORMAT:FORMATTED              ACCESS:SEQUENTIAL          

 BAS -- BASIC PACKAGE, VERSION 1.1.4, 4/01/2018 INPUT READ FROM UNIT    8

 MODFLOW was compiled using mixed precision
 Precision of REAL variables:           6
 Precision of DOUBLE PRECISION variables:          15

 DISCRETIZATION INPUT DATA READ FROM UNIT   11
 #Sagehen Simulation -- Example problem for MODFLOW
 #  (File modified for version 1.1.00 release)
    2 LAYERS        71 ROWS        79 COLUMNS
  223 STRESS PERIOD(S) IN SIMULATION
 MODEL TIME UNIT IS DAYS
 MODEL LENGTH UNIT IS METERS
  Confining bed flag for each layer:
   0   0

                     DELR =   90.0000    

                     DELC =   90.0000    



           TOP ELEVATION OF LAYER 1
 READING ON UNIT   11 WITH FORMAT: (FREE)              

            1           2           3           4           5           6           7           8           9          10
           11          12          13          14          15          16          17          18          19          20
           21          22          23          24          25          26          27          28          29          30
           31          32          33          34          35          36          37          38          39          40
           41          42          43          44          45          46          47          48          49          50
           51          52          53          54          55          56          57          58          59          60
           61          62          63          64          65          66          67          68          69          70
           71          72          73          74          75          76          77          78          79
 ........................................................................................................................
   1    0.000       0.000       0.000       0.000       0.000       0.000       0.000       0.000       0.000       0.000    
        0.000       0.000       0.000       0.000       0.000       0.000       0.000       0.000       0.000       0.000    
        0.000       0.000       0.000       0.000       0.000       0.000       0.000       0.000       0.000       0.000    
        0.000       0.000       0.000       0.000       0.000       0.000       0.000       0.000       0.000       0.000    
        0.000       0.000       0.000       0.000       0.000       0.000       0.000       0.000       0.000       0.000    
        0.000       2173.       2163.       0.000       0.000       0.000       0.000       0.000       0.000       0.000    
        0.000       0.000       0.000       0.000       0.000       0.000       0.000       0.000       0.000       0.000    
        0.000       0.000       0.000       0.000       0.000       0.000       0.000       0.000       0.000    
   2    0.000       0.000       0.000       0.000       0.000       0.000       0.000       0.000       0.000       0.000    
        0.000       0.000       0.000       0.000       0.000       0.000       0.000       0.000       0.000       0.000    
        0.000       0.000       0.000       0.000       0.000       0.000       0.000       0.000       0.000       0.000    
        0.000       0.000       0.000       0.000       0.000       0.000       0.000       0.000       0.000       0.000    
        0.000       0.000       0.000       0.000       0.000       0.000       0.000       0.000       0.000       0.000    
        0.000       2171.       2157.       2132.       0.000       0.000       0.000       0.000       0.000       0.000    
        0.000       0.000       0.000       0.000       0.000       0.000       0.000       0.000       0.000       0.000    
        0.000       0.000       0.000       0.000       0.000       0.000       0.000       0.000       0.000    
   3    0.000       0.000       0.000       0.000       0.000       0.000       0.000       0.000       0.000       0.000    
        0.000       0.000       0.000       0.000       0.000       0.000       0.000       0.000       0.000       0.000    
        0.000       0.000       0.000       0.000       0.000       0.000       0.000       0.000       0.000       0.000    
        0.000       0.000       0.000       0.000       0.000       0.000       0.000       0.000       0.000       0.000    
        0.000       0.000       0.000       0.000       0.000       0.000       0.000       0.000       0.000       0.000    
        0.000       2164.       2149.       2122.       0.000       0.000       0.000       0.000       0.000       0.000    
        0.000       0.000       0.000       0.000       0.000       0.000       0.000       0.000       0.000       0.000    
        0.000       0.000       0.000       0.000       0.000       0.000       0.000       0.000       0.000    
   4    0.000       0.000       0.000       0.000       0.000       0.000       0.000       0.000       0.000       0.000    
        0.000       0.000       0.000       0.000       0.000       0.000       0.000       0.000       0.000       0.000    
        0.000       0.000       0.000       0.000       0.000       0.000       0.000       0.000       0.000       0.000    
        0.000       0.000       0.000       0.000       0.000       0.000       0.000       0.000       0.000       0.000    
        0.000       0.000       0.000       0.000       0.000       0.000       0.000       0.000       0.000       0.000    
        0.000       2157.       2138.       2121.       2120.       0.000       0.000       0.000       0.000       0.000    
        0.000       0.000       0.000       0.000       0.000       0.000       0.000       0.000       0.000       0.000    
        0.000       0.000       0.000       0.000       0.000       0.000       0.000       0.000       0.000    
   5    0.000       0.000       0.000       0.000       0.000       0.000       0.000       0.000       0.000       0.000    
        0.000       0.000       0.000       0.000       0.000       0.000       0.000       0.000       0.000       0.000    
        0.000       0.000       0.000       0.000       0.000       0.000       0.000       0.000       0.000       0.000    
        0.000       0.000       0.000       0.000       0.000       0.000       0.000       0.000       0.000       0.000    
        0.000       0.000       0.000       0.000       0.000       0.000       0.000       0.000       0.000       0.000    
        0.000       2151.       2131.       2120.       2118.       2118.       2116.       0.000       0.000       0.000    
        0.000       0.000       0.000       0.000       0.000       0.000       0.000       0.000       0.000       0.000    
        0.000       0.000       0.000       0.000       0.000       0.000       0.000       0.000       0.000    
   6    0.000       0.000       0.000       0.000       0.000       0.000       0.000       0.000       0.000       0.000    
        0.000       0.000       0.000       0.000       0.000       0.000       0.000       0.000       0.000       0.000    
        0.000       0.000       0.000       0.000       0.000       0.000       0.000       0.000       0.000       0.000    
        0.000       0.000       0.000       0.000       0.000       0.000       0.000       0.000       0.000       0.000    
        0.000       0.000       0.000       0.000       0.000       0.000       0.000       0.000       0.000       0.000    
        0.000       2149.       2132.       2121.       2119.       2116.       2114.       2116.       2120.       0.000    
        0.000       0.000       0.000       2122.       2124.       0.000       0.000       0.000       0.000       0.000    
        0.000       0.000       0.000       0.000       0.000       0.000       0.000       0.000       0.000    
   7    0.000       0.000       0.000       0.000       0.000       0.000       0.000       0.000       0.000       0.000    
        0.000       0.000       0.000       0.000       0.000       0.000       0.000       0.000       0.000       0.000    
        0.000       0.000       0.000       0.000       0.000       0.000       0.000       0.000       0.000       0.000    
        0.000       0.000       0.000       0.000       0.000       0.000       0.000       0.000       0.000       0.000    
        0.000       0.000       0.000       0.000       0.000       0.000       0.000       0.000       0.000       0.000    
        0.000       2151.       2136.       2132.       2120.       2113.       2111.       2114.       2119.       2122.    
        2126.       2124.       2121.       2119.       2122.       2123.       0.000       0.000       0.000       0.000    
        0.000       0.000       0.000       0.000       0.000       0.000       0.000       0.000       0.000    
   8    0.000       0.000       0.000       0.000       0.000       0.000       0.000       0.000       0.000       0.000    
        0.000       0.000       0.000       0.000       0.000       0.000       0.000       0.000       0.000       0.000    
        0.000       0.000       0.000       0.000       0.000       0.000       0.000       0.000       0.000       0.000    
        0.000       0.000       0.000       0.000       0.000       0.000       0.000       0.000       0.000       0.000    
        0.000       0.000       0.000       0.000       0.000       0.000       0.000       0.000       0.000       0.000    
        0.000       2158.       2146.       2136.       2120.       2109.       2109.       2111.       2117.       2123.    
        2126.       2125.       2122.       2117.       2116.       2117.       2117.       2118.       0.000       0.000    
        0.000       0.000       0.000       0.000       0.000       0.000       0.000       0.000       0.000    
   9    0.000       0.000       0.000       0.000       0.000       0.000       0.000       0.000       0.000       0.000    
        0.000       0.000       0.000       0.000       0.000       0.000       0.000       0.000       0.000       0.000    
        0.000       0.000       0.000       0.000       0.000       0.000       0.000       0.000       0.000       0.000    
        0.000       0.000       0.000       0.000       0.000       0.000       0.000       0.000       0.000       0.000    
        0.000       0.000       0.000       0.000       0.000       0.000       0.000       0.000       0.000       0.000    
        2160.       2152.       2141.       2132.       2121.       2110.       2106.       2108.       2110.       2119.    
        2125.       2125.       2122.       2116.       2110.       2108.       2111.       2116.       2120.       0.000    
        0.000       0.000       0.000       0.000       0.000       0.000       0.000       0.000       0.000    
  10    0.000       0.000       0.000       0.000       0.000       0.000       0.000       0.000       0.000       0.000    
        0.000       0.000       0.000       0.000       0.000       0.000       0.000       0.000       0.000       0.000    
        0.000       0.000       0.000       0.000       0.000       0.000       0.000       0.000       0.000       0.000    
        0.000       0.000       0.000       0.000       0.000       0.000       0.000       0.000       0.000       0.000    
        0.000       0.000       0.000       0.000       0.000       0.000       0.000       0.000       0.000       2151.    
        2154.       2147.       2140.       2130.       2117.       2111.       2106.       2107.       2108.       2115.    
        2120.       2121.       2119.       2116.       2111.       2099.       2106.       2115.       2122.       2127.    
        0.000       0.000       0.000       0.000       0.000       0.000       0.000       0.000       0.000    
  11    0.000       0.000       0.000       0.000       0.000       0.000       0.000       0.000       0.000       0.000    
        0.000       0.000       0.000       0.000       0.000       0.000       0.000       0.000       0.000       0.000    
        0.000       0.000       0.000       0.000       0.000       0.000       0.000       0.000       0.000       0.000    
        0.000       0.000       0.000       0.000       0.000       0.000       0.000       0.000       0.000       0.000    
        0.000       0.000       0.000       0.000       0.000       0.000       0.000       0.000       2150.       2148.    
        2146.       2143.       2139.       2130.       2118.       2111.       2106.       2105.       2105.       2108.    
        2112.       2112.       2113.       2112.       2107.       2097.       2104.       2112.       2119.       2125.    
        2130.       0.000       0.000       0.000       0.000       0.000       0.000       0.000       0.000    
  12    0.000       0.000       0.000       0.000       0.000       0.000       0.000       0.000       0.000       0.000    
        0.000       0.000       0.000       0.000       0.000       0.000       0.000       0.000       0.000       0.000    
        0.000       0.000       0.000       0.000       0.000       0.000       0.000       0.000       0.000       0.000    
        0.000       0.000       0.000       0.000       0.000       0.000       0.000       0.000       0.000       0.000    
        0.000       2187.       2181.       0.000       0.000       0.000       0.000       2156.       2152.       2146.    
        2143.       2137.       2136.       2135.       2121.       2112.       2108.       2103.       2101.       2102.    
        2104.       2106.       2107.       2106.       2101.       2094.       2097.       2105.       2112.       2123.    
        2128.       0.000       0.000       0.000       0.000       0.000       0.000       0.000       0.000    
  13    0.000       0.000       0.000       0.000       0.000       0.000       0.000       0.000       0.000       0.000    
        0.000       0.000       0.000       0.000       0.000       0.000       0.000       0.000       0.000       0.000    
        0.000       0.000       0.000       0.000       0.000       0.000       0.000       0.000       0.000       0.000    
        0.000       0.000       0.000       0.000       0.000       0.000       0.000       0.000       2188.       2185.    
        2184.       2182.       2171.       2167.       2165.       2164.       2161.       2157.       2150.       2144.    
        2139.       2134.       2131.       2128.       2122.       2114.       2108.       2102.       2098.       2096.    
        2097.       2098.       2103.       2101.       2096.       2088.       2089.       2096.       2108.       2121.    
        2123.       2124.       0.000       0.000       0.000       0.000       0.000       0.000       0.000    
  14    0.000       0.000       0.000       0.000       0.000       0.000       0.000       0.000       0.000       0.000    
        0.000       0.000       0.000       0.000       0.000       0.000       0.000       0.000       0.000       0.000    
        0.000       0.000       0.000       0.000       0.000       0.000       0.000       0.000       0.000       0.000    
        0.000       0.000       0.000       0.000       0.000       0.000       0.000       0.000       2188.       2178.    
        2172.       2168.       2158.       2157.       2157.       2161.       2160.       2155.       2148.       2142.    
        2137.       2132.       2128.       2124.       2120.       2116.       2110.       2104.       2098.       2092.    
        2092.       2094.       2097.       2097.       2089.       2081.       2080.       2087.       2098.       2113.    
        2116.       2118.       2118.       0.000       0.000       0.000       0.000       0.000       0.000    
  15    0.000       0.000       0.000       0.000       0.000       0.000       0.000       0.000       0.000       0.000    
        0.000       0.000       0.000       0.000       0.000       0.000       0.000       0.000       0.000       0.000    
        0.000       0.000       0.000       0.000       0.000       0.000       0.000       0.000       0.000       0.000    
        0.000       0.000       0.000       0.000       0.000       0.000       0.000       2197.       2186.       2178.    
        2170.       2153.       2145.       2142.       2143.       2150.       2152.       2151.       2146.       2140.    
        2134.       2129.       2124.       2120.       2116.       2113.       2111.       2106.       2100.       2091.    
        2087.       2090.       2092.       2090.       2087.       2078.       2073.       2078.       2085.       2097.    
        2105.       2110.       2114.       0.000       0.000       0.000       0.000       0.000       0.000    
  16    0.000       0.000       0.000       0.000       0.000       0.000       0.000       0.000       0.000       0.000    
        0.000       0.000       0.000       0.000       0.000       0.000       0.000       0.000       0.000       0.000    
        0.000       0.000       0.000       0.000       0.000       0.000       0.000       0.000       0.000       0.000    
        0.000       0.000       0.000       0.000       0.000       0.000       2207.       2195.       2186.       2175.    
        2164.       2155.       2150.       2146.       2131.       2136.       2137.       2140.       2139.       2136.    
        2132.       2125.       2120.       2115.       2111.       2109.       2107.       2105.       2101.       2097.    
        2083.       2086.       2089.       2088.       2086.       2078.       2070.       2070.       2072.       2084.    
        2092.       2102.       2109.       2110.       0.000       0.000       0.000       0.000       0.000    
  17    0.000       0.000       0.000       0.000       0.000       0.000       0.000       0.000       0.000       0.000    
        0.000       0.000       0.000       0.000       0.000       0.000       0.000       0.000       0.000       0.000    
        0.000       0.000       0.000       0.000       0.000       0.000       0.000       0.000       0.000       0.000    
        0.000       0.000       0.000       0.000       0.000       2208.       2202.       2186.       2179.       2170.    
        2158.       2155.       2152.       2148.       2135.       2124.       2122.       2122.       2129.       2129.    
        2125.       2119.       2113.       2110.       2108.       2106.       2105.       2103.       2100.       2097.    
        2083.       2082.       2087.       2085.       2078.       2067.       2065.       2062.       2063.       2069.    
        2077.       2093.       2101.       2103.       0.000       0.000       0.000       0.000       0.000    
  18    0.000       0.000       0.000       0.000       0.000       0.000       0.000       0.000       0.000       0.000    
        0.000       0.000       0.000       0.000       0.000       0.000       0.000       0.000       0.000       0.000    
        0.000       0.000       0.000       0.000       0.000       0.000       0.000       0.000       0.000       0.000    
        0.000       0.000       0.000       0.000       2214.       2207.       2194.       2182.       2174.       2167.    
        2158.       2155.       2150.       2146.       2133.       2126.       2117.       2105.       2115.       2120.    
        2117.       2111.       2108.       2104.       2102.       2102.       2102.       2101.       2099.       2093.    
        2086.       2073.       2078.       2075.       2067.       2060.       2060.       2057.       2057.       2056.    
        2066.       2081.       2091.       2096.       0.000       0.000       0.000       0.000       0.000    
  19    0.000       0.000       0.000       0.000       0.000       0.000       0.000       0.000       0.000       0.000    
        0.000       0.000       0.000       0.000       0.000       0.000       0.000       0.000       0.000       0.000    
        0.000       0.000       0.000       0.000       0.000       0.000       0.000       0.000       0.000       0.000    
        0.000       0.000       0.000       2220.       2208.       2210.       2195.       2184.       2181.       2172.    
        2163.       2157.       2151.       2147.       2139.       2133.       2117.       2092.       2099.       2108.    
        2109.       2103.       2102.       2099.       2097.       2098.       2100.       2100.       2098.       2089.    
        2081.       2071.       2063.       2063.       2060.       2055.       2057.       2056.       2056.       2056.    
        2058.       2070.       2084.       2096.       0.000       0.000       0.000       0.000       0.000    
  20    0.000       0.000       0.000       0.000       0.000       0.000       0.000       0.000       0.000       0.000    
        0.000       0.000       0.000       0.000       0.000       0.000       0.000       0.000       0.000       0.000    
        0.000       0.000       0.000       0.000       0.000       0.000       0.000       0.000       0.000       0.000    
        0.000       0.000       0.000       2219.       2227.       2228.       2210.       2199.       2187.       2179.    
        2172.       2159.       2149.       2146.       2138.       2132.       2113.       2087.       2089.       2095.    
        2099.       2095.       2095.       2093.       2093.       2094.       2098.       2097.       2092.       2084.    
        2077.       2069.       2060.       2054.       2055.       2053.       2056.       2059.       2060.       2062.    
        2060.       2067.       2083.       2110.       0.000       0.000       0.000       0.000       0.000    
  21    0.000       0.000       0.000       0.000       0.000       0.000       0.000       0.000       0.000       0.000    
        0.000       0.000       0.000       0.000       0.000       0.000       0.000       0.000       0.000       0.000    
        0.000       0.000       0.000       0.000       0.000       0.000       0.000       0.000       0.000       0.000    
        0.000       0.000       2230.       2239.       2243.       2230.       2210.       2194.       2179.       2168.    
        2158.       2148.       2139.       2131.       2124.       2116.       2100.       2077.       2074.       2081.    
        2087.       2085.       2085.       2085.       2088.       2091.       2095.       2092.       2085.       2080.    
        2075.       2067.       2060.       2051.       2051.       2052.       2061.       2065.       2073.       2073.    
        2070.       2070.       2082.       2097.       2107.       0.000       0.000       0.000       0.000    
  22    0.000       0.000       0.000       0.000       0.000       0.000       0.000       0.000       0.000       0.000    
        0.000       0.000       0.000       0.000       0.000       0.000       0.000       0.000       0.000       0.000    
        0.000       0.000       0.000       0.000       0.000       0.000       0.000       0.000       0.000       0.000    
        0.000       0.000       2248.       2245.       2232.       2215.       2199.       2183.       2171.       2162.    
        2151.       2138.       2126.       2114.       2100.       2092.       2075.       2065.       2060.       2068.    
        2077.       2077.       2076.       2080.       2085.       2088.       2091.       2087.       2081.       2075.    
        2071.       2066.       2061.       2051.       2048.       2051.       2058.       2065.       2070.       2075.    
        2080.       2077.       2077.       2087.       0.000       0.000       0.000       0.000       0.000    
  23    0.000       0.000       0.000       0.000       0.000       0.000       0.000       0.000       0.000       0.000    
        0.000       0.000       0.000       0.000       0.000       0.000       0.000       0.000       0.000       0.000    
        0.000       0.000       0.000       0.000       0.000       0.000       0.000       0.000       0.000       0.000    
        0.000       2257.       2243.       2230.       2216.       2201.       2185.       2173.       2160.       2150.    
        2144.       2136.       2123.       2111.       2092.       2073.       2062.       2055.       2049.       2060.    
        2067.       2067.       2069.       2074.       2082.       2085.       2089.       2088.       2079.       2071.    
        2069.       2065.       2061.       2050.       2045.       2047.       2053.       2062.       2070.       2077.    
        2086.       0.000       0.000       0.000       0.000       0.000       0.000       0.000       0.000    
  24    0.000       0.000       0.000       0.000       0.000       0.000       0.000       0.000       0.000       0.000    
        0.000       0.000       0.000       0.000       0.000       0.000       0.000       0.000       0.000       0.000    
        0.000       0.000       0.000       0.000       0.000       0.000       0.000       0.000       2253.       2258.    
        2251.       2240.       2226.       2212.       2199.       2182.       2169.       2156.       2145.       2136.    
        2129.       2119.       2111.       2105.       2093.       2075.       2059.       2047.       2040.       2050.    
        2054.       2054.       2059.       2073.       2077.       2081.       2085.       2086.       2077.       2071.    
        2066.       2065.       2062.       2048.       2045.       2045.       2047.       2056.       2067.       2077.    
        2087.       0.000       0.000       0.000       0.000       0.000       0.000       0.000       0.000    
  25    0.000       0.000       0.000       0.000       0.000       0.000       0.000       0.000       0.000       0.000    
        0.000       0.000       0.000       0.000       0.000       0.000       0.000       0.000       0.000       0.000    
        0.000       0.000       0.000       0.000       0.000       0.000       0.000       2265.       2240.       2229.    
        2229.       2218.       2207.       2196.       2181.       2168.       2155.       2139.       2126.       2119.    
        2113.       2106.       2097.       2092.       2087.       2077.       2058.       2045.       2035.       2038.    
        2042.       2043.       2049.       2064.       2071.       2074.       2078.       2081.       2075.       2065.    
        2062.       2062.       2062.       2057.       2049.       2049.       2045.       2048.       2059.       2068.    
        2079.       0.000       0.000       0.000       0.000       0.000       0.000       0.000       0.000    
  26    0.000       0.000       0.000       0.000       0.000       0.000       0.000       0.000       0.000       0.000    
        0.000       0.000       0.000       0.000       0.000       0.000       0.000       0.000       0.000       0.000    
        0.000       0.000       0.000       0.000       0.000       2274.       2259.       2237.       2212.       2203.    
        2202.       2196.       2187.       2177.       2164.       2151.       2135.       2119.       2108.       2103.    
        2098.       2088.       2083.       2079.       2077.       2072.       2061.       2042.       2033.       2026.    
        2027.       2032.       2040.       2053.       2064.       2068.       2071.       2074.       2070.       2061.    
        2057.       2059.       2058.       2058.       2057.       2050.       2049.       2042.       2049.       2058.    
        2065.       0.000       0.000       0.000       0.000       0.000       0.000       0.000       0.000    
  27    0.000       0.000       0.000       0.000       0.000       0.000       0.000       0.000       0.000       0.000    
        0.000       0.000       0.000       0.000       0.000       0.000       0.000       0.000       0.000       0.000    
        0.000       0.000       0.000       0.000       2273.       2252.       2235.       2217.       2193.       2175.    
        2179.       2176.       2170.       2159.       2147.       2130.       2112.       2101.       2095.       2088.    
        2080.       2074.       2068.       2068.       2067.       2066.       2058.       2046.       2037.       2026.    
        2019.       2023.       2031.       2043.       2058.       2062.       2064.       2065.       2061.       2056.    
        2052.       2052.       2053.       2057.       2057.       2054.       2052.       2041.       2043.       2048.    
        2052.       0.000       0.000       0.000       0.000       0.000       0.000       0.000       0.000    
  28    0.000       0.000       0.000       0.000       0.000       0.000       0.000       0.000       0.000       0.000    
        0.000       0.000       0.000       0.000       0.000       0.000       0.000       0.000       0.000       0.000    
        0.000       0.000       0.000       2273.       2250.       2229.       2213.       2198.       2179.       2166.    
        2163.       2162.       2154.       2142.       2129.       2113.       2097.       2088.       2080.       2072.    
        2064.       2060.       2056.       2057.       2058.       2058.       2054.       2048.       2039.       2028.    
        2014.       2017.       2023.       2036.       2047.       2052.       2056.       2056.       2053.       2051.    
        2046.       2046.       2046.       2053.       2057.       2057.       2055.       2039.       2036.       2042.    
        2045.       2045.       0.000       0.000       0.000       0.000       0.000       0.000       0.000    
  29    0.000       0.000       0.000       0.000       0.000       0.000       0.000       0.000       0.000       0.000    
        0.000       0.000       0.000       0.000       0.000       0.000       0.000       0.000       0.000       0.000    
        0.000       2277.       2269.       2250.       2225.       2207.       2194.       2181.       2170.       2159.    
        2151.       2147.       2138.       2127.       2115.       2099.       2086.       2076.       2067.       2060.    
        2053.       2047.       2045.       2048.       2048.       2049.       2050.       2045.       2039.       2028.    
        2016.       2009.       2017.       2029.       2038.       2041.       2046.       2045.       2046.       2046.    
        2039.       2039.       2040.       2049.       2057.       2056.       2052.       2042.       2029.       2037.    
        2040.       2040.       0.000       0.000       0.000       0.000       0.000       0.000       0.000    
  30    0.000       0.000       0.000       0.000       0.000       0.000       0.000       0.000       0.000       0.000    
        0.000       0.000       0.000       0.000       0.000       0.000       0.000       0.000       0.000       2312.    
        2283.       2263.       2245.       2223.       2202.       2188.       2177.       2168.       2158.       2150.    
        2146.       2135.       2125.       2117.       2105.       2091.       2076.       2064.       2057.       2048.    
        2042.       2037.       2035.       2038.       2039.       2040.       2043.       2039.       2034.       2027.    
        2014.       2004.       2012.       2026.       2029.       2030.       2034.       2034.       2039.       2040.    
        2034.       2032.       2035.       2044.       2053.       2050.       2045.       2041.       2023.       2027.    
        2036.       2036.       0.000       0.000       0.000       0.000       0.000       0.000       0.000    
  31    0.000       0.000       0.000       0.000       0.000       0.000       0.000       0.000       0.000       0.000    
        0.000       0.000       0.000       0.000       0.000       0.000       0.000       0.000       2318.       2297.    
        2271.       2243.       2219.       2202.       2185.       2174.       2166.       2156.       2147.       2140.    
        2135.       2128.       2114.       2108.       2100.       2085.       2068.       2057.       2048.       2042.    
        2036.       2031.       2029.       2029.       2031.       2033.       2034.       2034.       2029.       2023.    
        2010.       1999.       2007.       2019.       2020.       2020.       2022.       2026.       2033.       2033.    
        2027.       2023.       2030.       2039.       2046.       2044.       2038.       2036.       2025.       2011.    
        2022.       2029.       0.000       0.000       0.000       0.000       0.000       0.000       0.000    
  32    0.000       0.000       0.000       0.000       0.000       0.000       0.000       0.000       0.000       0.000    
        0.000       0.000       0.000       0.000       0.000       0.000       2336.       2318.       2297.       2282.    
        2257.       2229.       2203.       2180.       2170.       2162.       2154.       2146.       2138.       2131.    
        2125.       2120.       2109.       2102.       2094.       2081.       2065.       2051.       2044.       2037.    
        2030.       2025.       2023.       2022.       2023.       2025.       2027.       2027.       2026.       2020.    
        2007.       1997.       1997.       2003.       2006.       2009.       2011.       2018.       2023.       2023.    
        2017.       2013.       2023.       2031.       2039.       2038.       2032.       2030.       2020.       2005.    
        2015.       2025.       0.000       0.000       0.000       0.000       0.000       0.000       0.000    
  33    0.000       0.000       0.000       0.000       0.000       0.000       0.000       0.000       0.000       0.000    
        0.000       0.000       0.000       0.000       0.000       2363.       2326.       2301.       2284.       2270.    
        2248.       2222.       2192.       2168.       2159.       2153.       2144.       2136.       2130.       2123.    
        2117.       2113.       2108.       2100.       2086.       2073.       2060.       2049.       2038.       2039.    
        2037.       2031.       2024.       2019.       2017.       2017.       2017.       2019.       2020.       2015.    
        2007.       1997.       1991.       1991.       1994.       1995.       1999.       2005.       2008.       2007.    
        2004.       2005.       2013.       2022.       2028.       2027.       2026.       2025.       2010.       2003.    
        2015.       2022.       2023.       0.000       0.000       0.000       0.000       0.000       0.000    
  34    0.000       0.000       0.000       0.000       0.000       0.000       0.000       0.000       0.000       0.000    
        0.000       0.000       0.000       0.000       2381.       2352.       2317.       2291.       2277.       2265.    
        2243.       2217.       2192.       2169.       2151.       2143.       2133.       2128.       2122.       2116.    
        2111.       2107.       2099.       2092.       2083.       2064.       2054.       2046.       2049.       2049.    
        2050.       2044.       2033.       2022.       2016.       2011.       2007.       2001.       2008.       2007.    
        2003.       1998.       1991.       1987.       1985.       1984.       1986.       1989.       1992.       1994.    
        1989.       1997.       2003.       2011.       2014.       2011.       2006.       2006.       1986.       1995.    
        2005.       2014.       2016.       0.000       0.000       0.000       0.000       0.000       0.000    
  35    0.000       0.000       0.000       0.000       0.000       0.000       0.000       0.000       0.000       0.000    
        0.000       0.000       0.000       2379.       2363.       2346.       2318.       2281.       2270.       2258.    
        2234.       2214.       2193.       2172.       2153.       2141.       2132.       2124.       2115.       2110.    
        2104.       2099.       2091.       2081.       2067.       2062.       2054.       2054.       2066.       2074.    
        2074.       2065.       2041.       2026.       2019.       2014.       2014.       2006.       1994.       1990.    
        1989.       1988.       1989.       1990.       1982.       1979.       1980.       1979.       1980.       1980.    
        1981.       1989.       1997.       1999.       2000.       2001.       1992.       1986.       1973.       1980.    
        1991.       2003.       2014.       2015.       0.000       0.000       0.000       0.000       0.000    
  36    0.000       0.000       0.000       0.000       0.000       0.000       0.000       0.000       0.000       0.000    
        0.000       0.000       0.000       2362.       2350.       2338.       2312.       2280.       2259.       2245.    
        2229.       2209.       2192.       2174.       2160.       2147.       2134.       2124.       2115.       2107.    
        2098.       2091.       2084.       2077.       2074.       2065.       2057.       2062.       2076.       2079.    
        2079.       2068.       2051.       2036.       2023.       2021.       2019.       2010.       1998.       1991.    
        1988.       1984.       1980.       1982.       1976.       1975.       1975.       1974.       1973.       1973.    
        1976.       1982.       1988.       1988.       1985.       1987.       1979.       1975.       1967.       1968.    
        1975.       1990.       2004.       2007.       2006.       0.000       0.000       0.000       0.000    
  37    0.000       0.000       0.000       0.000       0.000       0.000       0.000       0.000       0.000       0.000    
        0.000       0.000       2367.       2354.       2343.       2329.       2309.       2276.       2258.       2240.    
        2219.       2202.       2184.       2170.       2160.       2147.       2134.       2125.       2120.       2112.    
        2101.       2094.       2089.       2085.       2082.       2072.       2061.       2065.       2075.       2080.    
        2077.       2064.       2051.       2040.       2027.       2028.       2024.       2009.       2000.       1995.    
        1991.       1986.       1983.       1980.       1978.       1975.       1973.       1972.       1972.       1970.    
        1971.       1976.       1978.       1977.       1974.       1969.       1964.       1960.       1959.       1960.    
        1964.       1972.       1979.       1982.       1983.       0.000       0.000       0.000       0.000    
  38    0.000       0.000       0.000       0.000       0.000       0.000       0.000       0.000       0.000       0.000    
        2394.       2373.       2361.       2347.       2336.       2324.       2306.       2278.       2265.       2242.    
        2226.       2212.       2193.       2172.       2166.       2155.       2141.       2130.       2125.       2117.    
        2107.       2103.       2099.       2093.       2090.       2080.       2067.       2067.       2073.       2081.    
        2074.       2058.       2049.       2041.       2035.       2037.       2032.       2017.       2006.       1999.    
        1994.       1989.       1986.       1984.       1982.       1978.       1975.       1974.       1972.       1971.    
        1967.       1963.       1963.       1963.       1963.       1960.       1958.       1955.       1953.       1951.    
        1950.       1953.       1957.       1959.       1962.       1958.       0.000       0.000       0.000    
  39    0.000       0.000       0.000       0.000       0.000       0.000       0.000       2460.       2433.       2413.    
        2389.       2372.       2354.       2342.       2333.       2321.       2304.       2287.       2271.       2257.    
        2233.       2216.       2196.       2181.       2177.       2166.       2147.       2137.       2131.       2120.    
        2115.       2111.       2103.       2097.       2096.       2086.       2072.       2071.       2075.       2084.    
        2080.       2061.       2054.       2045.       2046.       2050.       2047.       2035.       2015.       2004.    
        1999.       1993.       1990.       1989.       1987.       1985.       1982.       1979.       1976.       1974.    
        1973.       1977.       1985.       1991.       1983.       1969.       1962.       1953.       1948.       1946.    
        1942.       1942.       1942.       1944.       1943.       1940.       0.000       0.000       0.000    
  40    0.000       0.000       0.000       0.000       0.000       0.000       2484.       2462.       2433.       2410.    
        2388.       2368.       2355.       2344.       2333.       2323.       2311.       2296.       2281.       2261.    
        2238.       2218.       2202.       2198.       2197.       2177.       2162.       2150.       2138.       2127.    
        2124.       2116.       2110.       2105.       2101.       2091.       2074.       2078.       2087.       2090.    
        2089.       2080.       2063.       2052.       2054.       2064.       2059.       2044.       2023.       2014.    
        2005.       2000.       2000.       1997.       1998.       1999.       1996.       1999.       1994.       1980.    
        1978.       1987.       2001.       2006.       2008.       2005.       1989.       1961.       1954.       1949.    
        1945.       1941.       1938.       1936.       1934.       1933.       0.000       0.000       0.000    
  41    0.000       0.000       0.000       0.000       0.000       2518.       2502.       2467.       2443.       2418.    
        2393.       2373.       2357.       2346.       2340.       2332.       2322.       2309.       2283.       2264.    
        2248.       2228.       2215.       2211.       2207.       2194.       2173.       2159.       2142.       2138.    
        2129.       2121.       2114.       2109.       2104.       2093.       2080.       2090.       2099.       2100.    
        2096.       2090.       2075.       2062.       2060.       2076.       2071.       2054.       2039.       2022.    
        2016.       2012.       2014.       2013.       2012.       2019.       2012.       2017.       2002.       1989.    
        1985.       1996.       2007.       2014.       2017.       2017.       2002.       1975.       1962.       1954.    
        1949.       1944.       1941.       1938.       1938.       0.000       0.000       0.000       0.000    
  42    0.000       0.000       0.000       0.000       0.000       2535.       2523.       2491.       2463.       2432.    
        2399.       2378.       2366.       2356.       2357.       2352.       2345.       2325.       2294.       2272.    
        2254.       2240.       2222.       2208.       2200.       2188.       2170.       2159.       2152.       2143.    
        2133.       2123.       2119.       2114.       2107.       2094.       2090.       2106.       2111.       2108.    
        2105.       2096.       2083.       2075.       2070.       2072.       2082.       2076.       2063.       2035.    
        2031.       2029.       2032.       2034.       2034.       2034.       2030.       2020.       2005.       1995.    
        1993.       2004.       2015.       2021.       2023.       2017.       2003.       1982.       1967.       1959.    
        1952.       1946.       1944.       1943.       1942.       0.000       0.000       0.000       0.000    
  43    0.000       0.000       0.000       0.000       0.000       2551.       2539.       2500.       2469.       2438.    
        2408.       2387.       2382.       2379.       2375.       2369.       2363.       2343.       2316.       2282.    
        2264.       2249.       2231.       2222.       2207.       2196.       2187.       2178.       2163.       2147.    
        2137.       2132.       2125.       2118.       2110.       2096.       2099.       2115.       2120.       2116.    
        2115.       2114.       2094.       2083.       2078.       2080.       2091.       2091.       2082.       2060.    
        2057.       2053.       2055.       2056.       2053.       2046.       2036.       2022.       2013.       2000.    
        1999.       2009.       2020.       2028.       2028.       2020.       2006.       1987.       1971.       1962.    
        1955.       1951.       1947.       1951.       1951.       0.000       0.000       0.000       0.000    
  44    0.000       0.000       0.000       0.000       0.000       2554.       2536.       2503.       2467.       2435.    
        2411.       2398.       2390.       2383.       2374.       2368.       2363.       2356.       2333.       2306.    
        2278.       2250.       2254.       2242.       2227.       2213.       2200.       2189.       2172.       2152.    
        2144.       2139.       2130.       2122.       2111.       2099.       2106.       2125.       2133.       2127.    
        2121.       2122.       2121.       2105.       2090.       2091.       2102.       2102.       2095.       2090.    
        2085.       2080.       2079.       2077.       2068.       2060.       2045.       2023.       2017.       2007.    
        2006.       2011.       2021.       2031.       2031.       2021.       2009.       1994.       1976.       1970.    
        1961.       1955.       1952.       1963.       1961.       0.000       0.000       0.000       0.000    
  45    0.000       0.000       0.000       2555.       2547.       2546.       2529.       2499.       2455.       2429.    
        2407.       2393.       2382.       2370.       2354.       2346.       2345.       2340.       2330.       2308.    
        2274.       2280.       2267.       2251.       2238.       2224.       2207.       2192.       2176.       2158.    
        2150.       2142.       2135.       2126.       2113.       2102.       2115.       2136.       2148.       2142.    
        2131.       2122.       2119.       2114.       2103.       2099.       2112.       2112.       2113.       2114.    
        2111.       2107.       2107.       2101.       2084.       2071.       2050.       2031.       2023.       2016.    
        2010.       2013.       2021.       2029.       2029.       2020.       2010.       1997.       1987.       1978.    
        1963.       1960.       1964.       1977.       1979.       0.000       0.000       0.000       0.000    
  46    0.000       0.000       0.000       2556.       2540.       2533.       2520.       2484.       2447.       2421.    
        2397.       2380.       2366.       2352.       2341.       2336.       2329.       2321.       2306.       2306.    
        2309.       2298.       2278.       2267.       2252.       2231.       2209.       2194.       2181.       2167.    
        2154.       2145.       2137.       2125.       2114.       2106.       2119.       2139.       2153.       2148.    
        2139.       2128.       2120.       2113.       2105.       2103.       2114.       2120.       2127.       2132.    
        2134.       2138.       2134.       2120.       2105.       2082.       2058.       2038.       2031.       2026.    
        2017.       2022.       2025.       2032.       2029.       2017.       2008.       1997.       1988.       1976.    
        1969.       1966.       1969.       1980.       1992.       0.000       0.000       0.000       0.000    
  47    0.000       0.000       0.000       2557.       2539.       2526.       2506.       2476.       2440.       2411.    
        2389.       2366.       2356.       2349.       2340.       2335.       2334.       2332.       2329.       2328.    
        2320.       2308.       2293.       2277.       2258.       2233.       2213.       2201.       2189.       2176.    
        2161.       2148.       2139.       2130.       2121.       2109.       2115.       2131.       2143.       2143.    
        2139.       2136.       2126.       2115.       2106.       2105.       2113.       2122.       2133.       2143.    
        2152.       2160.       2155.       2139.       2119.       2095.       2065.       2047.       2035.       2027.    
        2024.       2029.       2032.       2034.       2029.       2016.       2007.       1997.       1988.       1977.    
        1976.       1972.       1973.       1983.       1994.       0.000       0.000       0.000       0.000    
  48    0.000       0.000       0.000       2562.       2545.       2524.       2495.       2465.       2430.       2406.    
        2377.       2362.       2356.       2350.       2347.       2344.       2350.       2354.       2353.       2351.    
        2333.       2315.       2297.       2278.       2257.       2235.       2217.       2208.       2198.       2185.    
        2169.       2156.       2145.       2139.       2139.       2134.       2118.       2121.       2131.       2137.    
        2140.       2144.       2141.       2130.       2117.       2107.       2111.       2127.       2140.       2153.    
        2169.       2177.       2168.       2156.       2139.       2111.       2080.       2058.       2040.       2031.    
        2034.       2037.       2040.       2037.       2026.       2018.       2009.       2001.       1993.       1986.    
        1982.       1979.       1982.       1987.       1999.       2011.       0.000       0.000       0.000    
  49    0.000       0.000       0.000       2564.       2548.       2527.       2485.       2455.       2426.       2403.    
        2381.       2365.       2364.       2361.       2356.       2361.       2365.       2368.       2370.       2353.    
        2331.       2313.       2296.       2275.       2260.       2241.       2230.       2215.       2203.       2189.    
        2175.       2165.       2153.       2150.       2149.       2148.       2134.       2121.       2125.       2133.    
        2143.       2150.       2153.       2148.       2135.       2117.       2109.       2123.       2139.       2161.    
        2181.       2197.       2188.       2171.       2153.       2126.       2096.       2070.       2052.       2040.    
        2042.       2046.       2048.       2045.       2030.       2021.       2014.       2007.       1999.       1993.    
        1990.       1986.       1991.       1998.       2005.       2013.       0.000       0.000       0.000    
  50    0.000       0.000       0.000       2572.       2555.       2519.       2482.       2451.       2416.       2401.    
        2392.       2375.       2379.       2377.       2377.       2382.       2381.       2373.       2358.       2340.    
        2323.       2307.       2292.       2274.       2261.       2248.       2237.       2226.       2211.       2195.    
        2180.       2171.       2162.       2157.       2154.       2150.       2138.       2127.       2125.       2134.    
        2145.       2154.       2161.       2162.       2156.       2132.       2117.       2118.       2133.       2158.    
        2186.       2206.       2206.       2190.       2167.       2144.       2112.       2088.       2068.       2053.    
        2048.       2054.       2062.       2059.       2042.       2028.       2019.       2012.       2005.       2001.    
        1997.       1993.       2000.       2006.       2012.       2019.       0.000       0.000       0.000    
  51    0.000       0.000       0.000       2572.       2548.       2507.       2477.       2445.       2408.       2397.    
        2387.       2392.       2403.       2401.       2406.       2406.       2390.       2363.       2344.       2330.    
        2318.       2307.       2294.       2281.       2272.       2256.       2240.       2228.       2217.       2201.    
        2187.       2176.       2167.       2161.       2155.       2149.       2137.       2129.       2128.       2134.    
        2145.       2156.       2164.       2169.       2168.       2150.       2125.       2117.       2122.       2149.    
        2179.       2205.       2222.       2207.       2181.       2156.       2128.       2102.       2081.       2071.    
        2057.       2061.       2070.       2073.       2060.       2039.       2024.       2018.       2012.       2014.    
        2009.       1998.       2005.       2014.       2020.       2026.       0.000       0.000       0.000    
  52    0.000       0.000       2578.       2565.       2536.       2495.       2465.       2438.       2411.       2397.    
        2403.       2411.       2420.       2426.       2428.       2422.       2408.       2382.       2364.       2343.    
        2325.       2313.       2303.       2290.       2279.       2264.       2245.       2230.       2217.       2206.    
        2194.       2180.       2170.       2162.       2154.       2146.       2137.       2129.       2130.       2134.    
        2144.       2155.       2166.       2172.       2177.       2169.       2146.       2125.       2121.       2136.    
        2169.       2201.       2221.       2218.       2198.       2171.       2138.       2114.       2094.       2081.    
        2071.       2072.       2077.       2079.       2074.       2053.       2034.       2026.       2027.       2027.    
        2023.       2008.       2010.       2024.       2031.       2037.       0.000       0.000       0.000    
  53    0.000       0.000       2584.       2564.       2526.       2491.       2462.       2429.       2415.       2409.    
        2419.       2426.       2438.       2444.       2445.       2442.       2432.       2412.       2384.       2363.    
        2344.       2325.       2313.       2302.       2293.       2277.       2255.       2236.       2218.       2205.    
        2194.       2183.       2172.       2163.       2154.       2145.       2139.       2132.       2132.       2138.    
        2148.       2162.       2172.       2183.       2189.       2188.       2167.       2141.       2134.       2136.    
        2164.       2193.       2219.       2225.       2206.       2177.       2150.       2124.       2103.       2090.    
        2085.       2083.       2083.       2083.       2076.       2059.       2043.       2036.       2037.       2039.    
        2036.       2025.       2017.       2033.       2050.       2053.       2062.       0.000       0.000    
  54    0.000       0.000       2587.       2556.       2513.       2486.       2469.       2452.       2429.       2429.    
        2433.       2440.       2452.       2457.       2459.       2465.       2460.       2433.       2409.       2388.    
        2361.       2341.       2327.       2315.       2306.       2289.       2265.       2245.       2225.       2206.    
        2192.       2183.       2171.       2162.       2153.       2145.       2141.       2135.       2137.       2147.    
        2161.       2173.       2190.       2202.       2213.       2213.       2188.       2161.       2152.       2144.    
        2159.       2190.       2216.       2228.       2215.       2184.       2159.       2137.       2114.       2100.    
        2095.       2096.       2093.       2090.       2086.       2068.       2053.       2046.       2050.       2053.    
        2054.       2042.       2029.       2037.       2053.       2061.       2066.       0.000       0.000    
  55    0.000       2614.       2586.       2557.       2533.       2508.       2483.       2465.       2441.       2447.    
        2445.       2456.       2464.       2469.       2473.       2479.       2481.       2453.       2428.       2407.    
        2380.       2357.       2339.       2325.       2313.       2297.       2275.       2254.       2232.       2209.    
        2194.       2182.       2171.       2161.       2153.       2146.       2143.       2138.       2144.       2157.    
        2172.       2189.       2207.       2223.       2235.       2236.       2205.       2180.       2166.       2159.    
        2165.       2187.       2212.       2232.       2225.       2194.       2169.       2153.       2134.       2112.    
        2108.       2106.       2104.       2098.       2091.       2078.       2067.       2058.       2062.       2067.    
        2068.       2066.       2041.       2048.       2058.       2065.       2072.       0.000       0.000    
  56    0.000       2609.       2575.       2545.       2535.       2525.       2504.       2475.       2466.       2456.    
        2453.       2469.       2478.       2479.       2484.       2492.       2493.       2471.       2450.       2428.    
        2405.       2378.       2354.       2337.       2320.       2306.       2285.       2263.       2238.       2212.    
        2199.       2186.       2172.       2161.       2155.       2150.       2146.       2143.       2150.       2164.    
        2182.       2201.       2222.       2239.       2254.       2254.       2219.       2198.       2182.       2175.    
        2170.       2183.       2211.       2234.       2232.       2202.       2182.       2164.       2146.       2128.    
        2118.       2119.       2118.       2108.       2096.       2086.       2076.       2070.       2072.       2080.    
        2085.       2080.       2052.       2057.       2069.       2075.       2076.       0.000       0.000    
  57    2638.       2599.       2549.       2534.       2537.       2532.       2507.       2508.       2481.       2467.    
        2482.       2493.       2494.       2492.       2498.       2505.       2506.       2491.       2474.       2450.    
        2423.       2401.       2369.       2350.       2330.       2313.       2295.       2273.       2243.       2221.    
        2203.       2187.       2174.       2163.       2156.       2151.       2147.       2148.       2155.       2167.    
        2182.       2202.       2226.       2241.       2256.       2263.       2242.       2214.       2198.       2189.    
        2181.       2189.       2211.       2238.       2245.       2215.       2195.       2177.       2161.       2146.    
        2132.       2137.       2135.       2122.       2106.       2096.       2088.       2080.       2081.       2088.    
        2095.       2090.       2063.       2070.       2075.       2079.       2081.       0.000       0.000    
  58    2641.       2597.       2553.       2535.       2525.       2517.       2530.       2526.       2492.       2494.    
        2504.       2513.       2514.       2505.       2510.       2516.       2520.       2507.       2485.       2461.    
        2435.       2413.       2389.       2363.       2343.       2323.       2305.       2280.       2252.       2227.    
        2210.       2192.       2178.       2167.       2158.       2153.       2150.       2150.       2156.       2165.    
        2178.       2197.       2216.       2233.       2254.       2266.       2271.       2237.       2218.       2206.    
        2198.       2198.       2215.       2242.       2254.       2230.       2210.       2193.       2177.       2160.    
        2149.       2153.       2150.       2138.       2122.       2109.       2099.       2093.       2093.       2098.    
        2095.       2087.       2074.       2081.       2083.       2084.       2086.       0.000       0.000    
  59    2648.       2611.       2564.       2542.       2531.       2523.       2548.       2546.       2534.       2520.    
        2526.       2533.       2530.       2524.       2524.       2526.       2534.       2519.       2496.       2472.    
        2442.       2422.       2400.       2373.       2352.       2333.       2311.       2285.       2257.       2235.    
        2214.       2198.       2181.       2170.       2160.       2155.       2151.       2152.       2158.       2165.    
        2178.       2195.       2215.       2233.       2252.       2270.       2277.       2263.       2236.       2224.    
        2215.       2212.       2219.       2246.       2260.       2245.       2225.       2211.       2196.       2179.    
        2166.       2170.       2164.       2152.       2136.       2119.       2113.       2105.       2107.       2106.    
        2096.       2087.       2085.       2089.       2088.       2090.       2096.       2103.       0.000    
  60    0.000       2632.       2600.       2575.       2565.       2550.       2575.       2578.       2573.       2560.    
        2560.       2553.       2541.       0.000       0.000       0.000       2543.       2529.       2506.       2479.    
        2453.       2428.       2404.       2388.       2372.       2346.       2319.       2290.       2267.       2242.    
        2217.       2203.       2187.       2173.       2164.       2157.       2153.       2154.       2158.       2166.    
        2177.       2196.       2215.       2232.       2255.       2278.       2288.       2280.       2259.       2238.    
        2229.       2226.       2225.       2245.       2262.       2256.       2241.       2228.       2211.       2198.    
        2188.       2194.       2188.       2170.       2152.       2135.       2128.       2122.       2120.       2111.    
        2098.       2091.       2093.       2096.       2095.       2099.       2107.       2112.       2115.    
  61    0.000       0.000       2629.       2621.       2602.       2599.       2598.       2594.       2603.       2605.    
        2588.       0.000       0.000       0.000       0.000       0.000       0.000       2536.       2509.       2484.    
        2458.       2430.       2408.       2390.       2382.       2350.       2323.       2297.       2273.       2245.    
        2225.       2211.       2190.       2177.       2168.       2159.       2156.       2155.       2159.       2166.    
        2178.       2194.       2214.       2234.       2256.       2282.       2303.       2299.       2276.       2256.    
        2241.       2235.       2236.       2244.       2262.       2266.       2258.       2245.       2228.       2215.    
        2205.       2211.       2211.       2189.       2170.       2154.       2142.       2133.       2127.       2112.    
        2103.       2097.       2101.       2103.       2103.       2110.       2116.       2119.       2122.    
  62    0.000       0.000       0.000       2626.       0.000       0.000       0.000       0.000       0.000       0.000    
        0.000       0.000       0.000       0.000       0.000       0.000       0.000       0.000       0.000       2487.    
        2461.       2433.       2407.       2392.       2377.       2349.       2328.       2303.       2276.       2251.    
        2230.       2213.       2195.       2181.       2171.       2163.       2159.       2157.       2159.       2167.    
        2178.       2193.       2214.       2232.       2253.       2280.       2306.       2313.       2301.       2273.    
        2257.       2247.       2246.       2248.       2260.       2274.       2274.       2263.       2249.       2235.    
        2219.       2229.       2226.       2210.       2189.       2172.       2158.       2142.       2127.       2116.    
        2107.       2106.       2109.       2108.       2112.       2117.       2123.       2127.       2130.    
  63    0.000       0.000       0.000       0.000       0.000       0.000       0.000       0.000       0.000       0.000    
        0.000       0.000       0.000       0.000       0.000       0.000       0.000       0.000       0.000       2489.    
        2464.       2429.       2407.       2391.       2377.       2352.       2331.       2307.       2283.       2253.    
        2233.       2218.       2203.       2184.       2173.       2166.       2162.       2159.       2162.       2168.    
        2177.       2192.       2211.       2229.       2252.       2272.       2298.       2321.       2318.       2298.    
        2271.       2261.       2256.       2255.       2265.       2278.       2289.       2283.       2272.       2264.    
        2252.       2250.       2247.       2229.       2211.       2187.       2167.       2151.       2135.       2120.    
        2112.       2113.       2114.       2115.       2118.       2124.       2129.       2134.       2138.    
  64    0.000       0.000       0.000       0.000       0.000       0.000       0.000       0.000       0.000       0.000    
        0.000       0.000       0.000       0.000       0.000       0.000       0.000       0.000       0.000       0.000    
        0.000       0.000       0.000       0.000       2379.       2359.       2337.       2314.       2291.       2259.    
        2240.       2221.       2208.       2193.       2176.       2168.       2164.       2162.       2163.       2167.    
        2177.       2189.       2208.       2226.       2247.       2270.       2294.       2316.       2328.       2320.    
        2297.       2281.       2276.       2268.       2270.       2281.       2294.       2302.       2298.       2287.    
        2278.       2274.       2265.       2251.       2230.       2201.       2173.       2155.       2139.       2125.    
        2119.       2119.       2120.       2120.       2123.       2128.       2135.       2142.       2147.    
  65    0.000       0.000       0.000       0.000       0.000       0.000       0.000       0.000       0.000       0.000    
        0.000       0.000       0.000       0.000       0.000       0.000       0.000       0.000       0.000       0.000    
        0.000       0.000       0.000       0.000       0.000       0.000       0.000       0.000       0.000       0.000    
        0.000       0.000       0.000       2197.       2184.       2171.       2166.       2164.       2164.       2168.    
        2175.       2188.       2203.       2220.       2242.       0.000       0.000       0.000       0.000       2331.    
        2320.       2310.       2305.       2289.       2277.       2282.       2295.       2310.       2316.       2308.    
        2301.       2292.       2278.       2262.       2240.       2211.       2181.       2157.       2144.       2131.    
        2128.       2126.       2127.       2127.       2127.       2133.       2139.       2146.       2151.    
  66    0.000       0.000       0.000       0.000       0.000       0.000       0.000       0.000       0.000       0.000    
        0.000       0.000       0.000       0.000       0.000       0.000       0.000       0.000       0.000       0.000    
        0.000       0.000       0.000       0.000       0.000       0.000       0.000       0.000       0.000       0.000    
        0.000       0.000       0.000       0.000       0.000       2176.       2170.       0.000       0.000       0.000    
        0.000       0.000       0.000       0.000       0.000       0.000       0.000       0.000       0.000       0.000    
        2328.       2325.       2324.       2307.       2292.       2288.       2298.       2315.       2329.       2326.    
        2318.       2304.       2289.       2268.       2246.       2215.       2184.       2163.       2151.       2143.    
        2141.       2136.       2135.       2132.       2130.       2134.       2141.       2147.       2155.    
  67    0.000       0.000       0.000       0.000       0.000       0.000       0.000       0.000       0.000       0.000    
        0.000       0.000       0.000       0.000       0.000       0.000       0.000       0.000       0.000       0.000    
        0.000       0.000       0.000       0.000       0.000       0.000       0.000       0.000       0.000       0.000    
        0.000       0.000       0.000       0.000       0.000       0.000       0.000       0.000       0.000       0.000    
        0.000       0.000       0.000       0.000       0.000       0.000       0.000       0.000       0.000       0.000    
        0.000       0.000       2332.       2322.       2304.       2296.       2301.       2315.       2334.       2339.    
        2330.       2317.       2292.       2272.       2250.       2220.       2193.       2168.       2159.       2154.    
        2146.       0.000       0.000       0.000       0.000       0.000       0.000       0.000       0.000    
  68    0.000       0.000       0.000       0.000       0.000       0.000       0.000       0.000       0.000       0.000    
        0.000       0.000       0.000       0.000       0.000       0.000       0.000       0.000       0.000       0.000    
        0.000       0.000       0.000       0.000       0.000       0.000       0.000       0.000       0.000       0.000    
        0.000       0.000       0.000       0.000       0.000       0.000       0.000       0.000       0.000       0.000    
        0.000       0.000       0.000       0.000       0.000       0.000       0.000       0.000       0.000       0.000    
        0.000       0.000       0.000       2330.       2314.       2304.       2301.       2311.       2327.       2347.    
        2336.       2322.       2300.       2278.       2256.       2226.       2200.       2179.       0.000       0.000    
        0.000       0.000       0.000       0.000       0.000       0.000       0.000       0.000       0.000    
  69    0.000       0.000       0.000       0.000       0.000       0.000       0.000       0.000       0.000       0.000    
        0.000       0.000       0.000       0.000       0.000       0.000       0.000       0.000       0.000       0.000    
        0.000       0.000       0.000       0.000       0.000       0.000       0.000       0.000       0.000       0.000    
        0.000       0.000       0.000       0.000       0.000       0.000       0.000       0.000       0.000       0.000    
        0.000       0.000       0.000       0.000       0.000       0.000       0.000       0.000       0.000       0.000    
        0.000       0.000       0.000       0.000       0.000       0.000       0.000       0.000       0.000       0.000    
        2349.       2331.       2310.       2288.       2265.       2237.       2212.       0.000       0.000       0.000    
        0.000       0.000       0.000       0.000       0.000       0.000       0.000       0.000       0.000    
  70    0.000       0.000       0.000       0.000       0.000       0.000       0.000       0.000       0.000       0.000    
        0.000       0.000       0.000       0.000       0.000       0.000       0.000       0.000       0.000       0.000    
        0.000       0.000       0.000       0.000       0.000       0.000       0.000       0.000       0.000       0.000    
        0.000       0.000       0.000       0.000       0.000       0.000       0.000       0.000       0.000       0.000    
        0.000       0.000       0.000       0.000       0.000       0.000       0.000       0.000       0.000       0.000    
        0.000       0.000       0.000       0.000       0.000       0.000       0.000       0.000       0.000       0.000    
        0.000       2345.       2324.       2300.       2278.       2247.       0.000       0.000       0.000       0.000    
        0.000       0.000       0.000       0.000       0.000       0.000       0.000       0.000       0.000    
  71    0.000       0.000       0.000       0.000       0.000       0.000       0.000       0.000       0.000       0.000    
        0.000       0.000       0.000       0.000       0.000       0.000       0.000       0.000       0.000       0.000    
        0.000       0.000       0.000       0.000       0.000       0.000       0.000       0.000       0.000       0.000    
        0.000       0.000       0.000       0.000       0.000       0.000       0.000       0.000       0.000       0.000    
        0.000       0.000       0.000       0.000       0.000       0.000       0.000       0.000       0.000       0.000    
        0.000       0.000       0.000       0.000       0.000       0.000       0.000       0.000       0.000       0.000    
        0.000       0.000       2339.       2313.       0.000       0.000       0.000       0.000       0.000       0.000    
        0.000       0.000       0.000       0.000       0.000       0.000       0.000       0.000       0.000    



             MODEL LAYER BOTTOM EL. FOR LAYER   1
 READING ON UNIT   11 WITH FORMAT: (FREE)              

            1           2           3           4           5           6           7           8           9          10
           11          12          13          14          15          16          17          18          19          20
           21          22          23          24          25          26          27          28          29          30
           31          32          33          34          35          36          37          38          39          40
           41          42          43          44          45          46          47          48          49          50
           51          52          53          54          55          56          57          58          59          60
           61          62          63          64          65          66          67          68          69          70
           71          72          73          74          75          76          77          78          79
 ........................................................................................................................
   1    0.000       0.000       0.000       0.000       0.000       0.000       0.000       0.000       0.000       0.000    
        0.000       0.000       0.000       0.000       0.000       0.000       0.000       0.000       0.000       0.000    
        0.000       0.000       0.000       0.000       0.000       0.000       0.000       0.000       0.000       0.000    
        0.000       0.000       0.000       0.000       0.000       0.000       0.000       0.000       0.000       0.000    
        0.000       0.000       0.000       0.000       0.000       0.000       0.000       0.000       0.000       0.000    
        0.000       2103.       2093.       0.000       0.000       0.000       0.000       0.000       0.000       0.000    
        0.000       0.000       0.000       0.000       0.000       0.000       0.000       0.000       0.000       0.000    
        0.000       0.000       0.000       0.000       0.000       0.000       0.000       0.000       0.000    
   2    0.000       0.000       0.000       0.000       0.000       0.000       0.000       0.000       0.000       0.000    
        0.000       0.000       0.000       0.000       0.000       0.000       0.000       0.000       0.000       0.000    
        0.000       0.000       0.000       0.000       0.000       0.000       0.000       0.000       0.000       0.000    
        0.000       0.000       0.000       0.000       0.000       0.000       0.000       0.000       0.000       0.000    
        0.000       0.000       0.000       0.000       0.000       0.000       0.000       0.000       0.000       0.000    
        0.000       2101.       2087.       2062.       0.000       0.000       0.000       0.000       0.000       0.000    
        0.000       0.000       0.000       0.000       0.000       0.000       0.000       0.000       0.000       0.000    
        0.000       0.000       0.000       0.000       0.000       0.000       0.000       0.000       0.000    
   3    0.000       0.000       0.000       0.000       0.000       0.000       0.000       0.000       0.000       0.000    
        0.000       0.000       0.000       0.000       0.000       0.000       0.000       0.000       0.000       0.000    
        0.000       0.000       0.000       0.000       0.000       0.000       0.000       0.000       0.000       0.000    
        0.000       0.000       0.000       0.000       0.000       0.000       0.000       0.000       0.000       0.000    
        0.000       0.000       0.000       0.000       0.000       0.000       0.000       0.000       0.000       0.000    
        0.000       2094.       2079.       2052.       0.000       0.000       0.000       0.000       0.000       0.000    
        0.000       0.000       0.000       0.000       0.000       0.000       0.000       0.000       0.000       0.000    
        0.000       0.000       0.000       0.000       0.000       0.000       0.000       0.000       0.000    
   4    0.000       0.000       0.000       0.000       0.000       0.000       0.000       0.000       0.000       0.000    
        0.000       0.000       0.000       0.000       0.000       0.000       0.000       0.000       0.000       0.000    
        0.000       0.000       0.000       0.000       0.000       0.000       0.000       0.000       0.000       0.000    
        0.000       0.000       0.000       0.000       0.000       0.000       0.000       0.000       0.000       0.000    
        0.000       0.000       0.000       0.000       0.000       0.000       0.000       0.000       0.000       0.000    
        0.000       2087.       2068.       2051.       2050.       0.000       0.000       0.000       0.000       0.000    
        0.000       0.000       0.000       0.000       0.000       0.000       0.000       0.000       0.000       0.000    
        0.000       0.000       0.000       0.000       0.000       0.000       0.000       0.000       0.000    
   5    0.000       0.000       0.000       0.000       0.000       0.000       0.000       0.000       0.000       0.000    
        0.000       0.000       0.000       0.000       0.000       0.000       0.000       0.000       0.000       0.000    
        0.000       0.000       0.000       0.000       0.000       0.000       0.000       0.000       0.000       0.000    
        0.000       0.000       0.000       0.000       0.000       0.000       0.000       0.000       0.000       0.000    
        0.000       0.000       0.000       0.000       0.000       0.000       0.000       0.000       0.000       0.000    
        0.000       2081.       2061.       2050.       2048.       2048.       2046.       0.000       0.000       0.000    
        0.000       0.000       0.000       0.000       0.000       0.000       0.000       0.000       0.000       0.000    
        0.000       0.000       0.000       0.000       0.000       0.000       0.000       0.000       0.000    
   6    0.000       0.000       0.000       0.000       0.000       0.000       0.000       0.000       0.000       0.000    
        0.000       0.000       0.000       0.000       0.000       0.000       0.000       0.000       0.000       0.000    
        0.000       0.000       0.000       0.000       0.000       0.000       0.000       0.000       0.000       0.000    
        0.000       0.000       0.000       0.000       0.000       0.000       0.000       0.000       0.000       0.000    
        0.000       0.000       0.000       0.000       0.000       0.000       0.000       0.000       0.000       0.000    
        0.000       2079.       2062.       2051.       2049.       2046.       2044.       2046.       2050.       0.000    
        0.000       0.000       0.000       2052.       2054.       0.000       0.000       0.000       0.000       0.000    
        0.000       0.000       0.000       0.000       0.000       0.000       0.000       0.000       0.000    
   7    0.000       0.000       0.000       0.000       0.000       0.000       0.000       0.000       0.000       0.000    
        0.000       0.000       0.000       0.000       0.000       0.000       0.000       0.000       0.000       0.000    
        0.000       0.000       0.000       0.000       0.000       0.000       0.000       0.000       0.000       0.000    
        0.000       0.000       0.000       0.000       0.000       0.000       0.000       0.000       0.000       0.000    
        0.000       0.000       0.000       0.000       0.000       0.000       0.000       0.000       0.000       0.000    
        0.000       2081.       2066.       2062.       2050.       2043.       2041.       2044.       2049.       2052.    
        2056.       2054.       2051.       2049.       2052.       2053.       0.000       0.000       0.000       0.000    
        0.000       0.000       0.000       0.000       0.000       0.000       0.000       0.000       0.000    
   8    0.000       0.000       0.000       0.000       0.000       0.000       0.000       0.000       0.000       0.000    
        0.000       0.000       0.000       0.000       0.000       0.000       0.000       0.000       0.000       0.000    
        0.000       0.000       0.000       0.000       0.000       0.000       0.000       0.000       0.000       0.000    
        0.000       0.000       0.000       0.000       0.000       0.000       0.000       0.000       0.000       0.000    
        0.000       0.000       0.000       0.000       0.000       0.000       0.000       0.000       0.000       0.000    
        0.000       2088.       2076.       2066.       2050.       2039.       2039.       2041.       2047.       2053.    
        2056.       2055.       2052.       2047.       2046.       2047.       2047.       2048.       0.000       0.000    
        0.000       0.000       0.000       0.000       0.000       0.000       0.000       0.000       0.000    
   9    0.000       0.000       0.000       0.000       0.000       0.000       0.000       0.000       0.000       0.000    
        0.000       0.000       0.000       0.000       0.000       0.000       0.000       0.000       0.000       0.000    
        0.000       0.000       0.000       0.000       0.000       0.000       0.000       0.000       0.000       0.000    
        0.000       0.000       0.000       0.000       0.000       0.000       0.000       0.000       0.000       0.000    
        0.000       0.000       0.000       0.000       0.000       0.000       0.000       0.000       0.000       0.000    
        2090.       2082.       2071.       2062.       2051.       2040.       2036.       2038.       2040.       2049.    
        2055.       2055.       2052.       2046.       2040.       2038.       2041.       2046.       2050.       0.000    
        0.000       0.000       0.000       0.000       0.000       0.000       0.000       0.000       0.000    
  10    0.000       0.000       0.000       0.000       0.000       0.000       0.000       0.000       0.000       0.000    
        0.000       0.000       0.000       0.000       0.000       0.000       0.000       0.000       0.000       0.000    
        0.000       0.000       0.000       0.000       0.000       0.000       0.000       0.000       0.000       0.000    
        0.000       0.000       0.000       0.000       0.000       0.000       0.000       0.000       0.000       0.000    
        0.000       0.000       0.000       0.000       0.000       0.000       0.000       0.000       0.000       2081.    
        2084.       2077.       2070.       2060.       2047.       2041.       2036.       2037.       2038.       2045.    
        2050.       2051.       2049.       2046.       2041.       2029.       2036.       2045.       2052.       2057.    
        0.000       0.000       0.000       0.000       0.000       0.000       0.000       0.000       0.000    
  11    0.000       0.000       0.000       0.000       0.000       0.000       0.000       0.000       0.000       0.000    
        0.000       0.000       0.000       0.000       0.000       0.000       0.000       0.000       0.000       0.000    
        0.000       0.000       0.000       0.000       0.000       0.000       0.000       0.000       0.000       0.000    
        0.000       0.000       0.000       0.000       0.000       0.000       0.000       0.000       0.000       0.000    
        0.000       0.000       0.000       0.000       0.000       0.000       0.000       0.000       2080.       2078.    
        2076.       2073.       2069.       2060.       2048.       2041.       2036.       2035.       2035.       2038.    
        2042.       2042.       2043.       2042.       2037.       2027.       2034.       2042.       2049.       2055.    
        2060.       0.000       0.000       0.000       0.000       0.000       0.000       0.000       0.000    
  12    0.000       0.000       0.000       0.000       0.000       0.000       0.000       0.000       0.000       0.000    
        0.000       0.000       0.000       0.000       0.000       0.000       0.000       0.000       0.000       0.000    
        0.000       0.000       0.000       0.000       0.000       0.000       0.000       0.000       0.000       0.000    
        0.000       0.000       0.000       0.000       0.000       0.000       0.000       0.000       0.000       0.000    
        0.000       2117.       2111.       0.000       0.000       0.000       0.000       2086.       2082.       2076.    
        2073.       2067.       2066.       2065.       2051.       2042.       2038.       2033.       2031.       2032.    
        2034.       2036.       2037.       2036.       2031.       2024.       2027.       2035.       2042.       2053.    
        2058.       0.000       0.000       0.000       0.000       0.000       0.000       0.000       0.000    
  13    0.000       0.000       0.000       0.000       0.000       0.000       0.000       0.000       0.000       0.000    
        0.000       0.000       0.000       0.000       0.000       0.000       0.000       0.000       0.000       0.000    
        0.000       0.000       0.000       0.000       0.000       0.000       0.000       0.000       0.000       0.000    
        0.000       0.000       0.000       0.000       0.000       0.000       0.000       0.000       2118.       2115.    
        2114.       2112.       2101.       2097.       2095.       2094.       2091.       2087.       2080.       2074.    
        2069.       2064.       2061.       2058.       2052.       2044.       2038.       2032.       2028.       2026.    
        2027.       2028.       2033.       2031.       2026.       2018.       2019.       2026.       2038.       2051.    
        2053.       2054.       0.000       0.000       0.000       0.000       0.000       0.000       0.000    
  14    0.000       0.000       0.000       0.000       0.000       0.000       0.000       0.000       0.000       0.000    
        0.000       0.000       0.000       0.000       0.000       0.000       0.000       0.000       0.000       0.000    
        0.000       0.000       0.000       0.000       0.000       0.000       0.000       0.000       0.000       0.000    
        0.000       0.000       0.000       0.000       0.000       0.000       0.000       0.000       2118.       2108.    
        2102.       2098.       2088.       2087.       2087.       2091.       2090.       2085.       2078.       2072.    
        2067.       2062.       2058.       2054.       2050.       2046.       2040.       2034.       2028.       2022.    
        2022.       2024.       2027.       2027.       2019.       2011.       2010.       2017.       2028.       2043.    
        2046.       2048.       2048.       0.000       0.000       0.000       0.000       0.000       0.000    
  15    0.000       0.000       0.000       0.000       0.000       0.000       0.000       0.000       0.000       0.000    
        0.000       0.000       0.000       0.000       0.000       0.000       0.000       0.000       0.000       0.000    
        0.000       0.000       0.000       0.000       0.000       0.000       0.000       0.000       0.000       0.000    
        0.000       0.000       0.000       0.000       0.000       0.000       0.000       2127.       2116.       2108.    
        2100.       2083.       2075.       2072.       2073.       2080.       2082.       2081.       2076.       2070.    
        2064.       2059.       2054.       2050.       2046.       2043.       2041.       2036.       2030.       2021.    
        2017.       2020.       2022.       2020.       2017.       2008.       2003.       2008.       2015.       2027.    
        2035.       2040.       2044.       0.000       0.000       0.000       0.000       0.000       0.000    
  16    0.000       0.000       0.000       0.000       0.000       0.000       0.000       0.000       0.000       0.000    
        0.000       0.000       0.000       0.000       0.000       0.000       0.000       0.000       0.000       0.000    
        0.000       0.000       0.000       0.000       0.000       0.000       0.000       0.000       0.000       0.000    
        0.000       0.000       0.000       0.000       0.000       0.000       2137.       2125.       2116.       2105.    
        2094.       2085.       2080.       2076.       2061.       2066.       2067.       2070.       2069.       2066.    
        2062.       2055.       2050.       2045.       2041.       2039.       2037.       2035.       2031.       2027.    
        2013.       2016.       2019.       2018.       2016.       2008.       2000.       2000.       2002.       2014.    
        2022.       2032.       2039.       2040.       0.000       0.000       0.000       0.000       0.000    
  17    0.000       0.000       0.000       0.000       0.000       0.000       0.000       0.000       0.000       0.000    
        0.000       0.000       0.000       0.000       0.000       0.000       0.000       0.000       0.000       0.000    
        0.000       0.000       0.000       0.000       0.000       0.000       0.000       0.000       0.000       0.000    
        0.000       0.000       0.000       0.000       0.000       2138.       2132.       2116.       2109.       2100.    
        2088.       2085.       2082.       2078.       2065.       2054.       2052.       2052.       2059.       2059.    
        2055.       2049.       2043.       2040.       2038.       2036.       2035.       2033.       2030.       2027.    
        2013.       2012.       2017.       2015.       2008.       1997.       1995.       1992.       1993.       1999.    
        2007.       2023.       2031.       2033.       0.000       0.000       0.000       0.000       0.000    
  18    0.000       0.000       0.000       0.000       0.000       0.000       0.000       0.000       0.000       0.000    
        0.000       0.000       0.000       0.000       0.000       0.000       0.000       0.000       0.000       0.000    
        0.000       0.000       0.000       0.000       0.000       0.000       0.000       0.000       0.000       0.000    
        0.000       0.000       0.000       0.000       2144.       2137.       2124.       2112.       2104.       2097.    
        2088.       2085.       2080.       2076.       2063.       2056.       2047.       2035.       2045.       2050.    
        2047.       2041.       2038.       2034.       2032.       2032.       2032.       2031.       2029.       2023.    
        2016.       2003.       2008.       2005.       1997.       1990.       1990.       1987.       1987.       1986.    
        1996.       2011.       2021.       2026.       0.000       0.000       0.000       0.000       0.000    
  19    0.000       0.000       0.000       0.000       0.000       0.000       0.000       0.000       0.000       0.000    
        0.000       0.000       0.000       0.000       0.000       0.000       0.000       0.000       0.000       0.000    
        0.000       0.000       0.000       0.000       0.000       0.000       0.000       0.000       0.000       0.000    
        0.000       0.000       0.000       2150.       2138.       2140.       2125.       2114.       2111.       2102.    
        2093.       2087.       2081.       2077.       2069.       2063.       2047.       2022.       2029.       2038.    
        2039.       2033.       2032.       2029.       2027.       2028.       2030.       2030.       2028.       2019.    
        2011.       2001.       1993.       1993.       1990.       1985.       1987.       1986.       1986.       1986.    
        1988.       2000.       2014.       2026.       0.000       0.000       0.000       0.000       0.000    
  20    0.000       0.000       0.000       0.000       0.000       0.000       0.000       0.000       0.000       0.000    
        0.000       0.000       0.000       0.000       0.000       0.000       0.000       0.000       0.000       0.000    
        0.000       0.000       0.000       0.000       0.000       0.000       0.000       0.000       0.000       0.000    
        0.000       0.000       0.000       2149.       2157.       2158.       2140.       2129.       2117.       2109.    
        2102.       2089.       2079.       2076.       2068.       2062.       2043.       2017.       2019.       2025.    
        2029.       2025.       2025.       2023.       2023.       2024.       2028.       2027.       2022.       2014.    
        2007.       1999.       1990.       1984.       1985.       1983.       1986.       1989.       1990.       1992.    
        1990.       1997.       2013.       2040.       0.000       0.000       0.000       0.000       0.000    
  21    0.000       0.000       0.000       0.000       0.000       0.000       0.000       0.000       0.000       0.000    
        0.000       0.000       0.000       0.000       0.000       0.000       0.000       0.000       0.000       0.000    
        0.000       0.000       0.000       0.000       0.000       0.000       0.000       0.000       0.000       0.000    
        0.000       0.000       2160.       2169.       2173.       2160.       2140.       2124.       2109.       2098.    
        2088.       2078.       2069.       2061.       2054.       2046.       2030.       2007.       2004.       2011.    
        2017.       2015.       2015.       2015.       2018.       2021.       2025.       2022.       2015.       2010.    
        2005.       1997.       1990.       1981.       1981.       1982.       1991.       1995.       2003.       2003.    
        2000.       2000.       2012.       2027.       2037.       0.000       0.000       0.000       0.000    
  22    0.000       0.000       0.000       0.000       0.000       0.000       0.000       0.000       0.000       0.000    
        0.000       0.000       0.000       0.000       0.000       0.000       0.000       0.000       0.000       0.000    
        0.000       0.000       0.000       0.000       0.000       0.000       0.000       0.000       0.000       0.000    
        0.000       0.000       2178.       2175.       2162.       2145.       2129.       2113.       2101.       2092.    
        2081.       2068.       2056.       2044.       2030.       2022.       2005.       1995.       1990.       1998.    
        2007.       2007.       2006.       2010.       2015.       2018.       2021.       2017.       2011.       2005.    
        2001.       1996.       1991.       1981.       1978.       1981.       1988.       1995.       2000.       2005.    
        2010.       2007.       2007.       2017.       0.000       0.000       0.000       0.000       0.000    
  23    0.000       0.000       0.000       0.000       0.000       0.000       0.000       0.000       0.000       0.000    
        0.000       0.000       0.000       0.000       0.000       0.000       0.000       0.000       0.000       0.000    
        0.000       0.000       0.000       0.000       0.000       0.000       0.000       0.000       0.000       0.000    
        0.000       2187.       2173.       2160.       2146.       2131.       2115.       2103.       2090.       2080.    
        2074.       2066.       2053.       2041.       2022.       2003.       1992.       1985.       1979.       1990.    
        1997.       1997.       1999.       2004.       2012.       2015.       2019.       2018.       2009.       2001.    
        1999.       1995.       1991.       1980.       1975.       1977.       1983.       1992.       2000.       2007.    
        2016.       0.000       0.000       0.000       0.000       0.000       0.000       0.000       0.000    
  24    0.000       0.000       0.000       0.000       0.000       0.000       0.000       0.000       0.000       0.000    
        0.000       0.000       0.000       0.000       0.000       0.000       0.000       0.000       0.000       0.000    
        0.000       0.000       0.000       0.000       0.000       0.000       0.000       0.000       2183.       2188.    
        2181.       2170.       2156.       2142.       2129.       2112.       2099.       2086.       2075.       2066.    
        2059.       2049.       2041.       2035.       2023.       2005.       1989.       1977.       1970.       1980.    
        1984.       1984.       1989.       2003.       2007.       2011.       2015.       2016.       2007.       2001.    
        1996.       1995.       1992.       1978.       1975.       1975.       1977.       1986.       1997.       2007.    
        2017.       0.000       0.000       0.000       0.000       0.000       0.000       0.000       0.000    
  25    0.000       0.000       0.000       0.000       0.000       0.000       0.000       0.000       0.000       0.000    
        0.000       0.000       0.000       0.000       0.000       0.000       0.000       0.000       0.000       0.000    
        0.000       0.000       0.000       0.000       0.000       0.000       0.000       2195.       2170.       2159.    
        2159.       2148.       2137.       2126.       2111.       2098.       2085.       2069.       2056.       2049.    
        2043.       2036.       2027.       2022.       2017.       2007.       1988.       1975.       1965.       1968.    
        1972.       1973.       1979.       1994.       2001.       2004.       2008.       2011.       2005.       1995.    
        1992.       1992.       1992.       1987.       1979.       1979.       1975.       1978.       1989.       1998.    
        2009.       0.000       0.000       0.000       0.000       0.000       0.000       0.000       0.000    
  26    0.000       0.000       0.000       0.000       0.000       0.000       0.000       0.000       0.000       0.000    
        0.000       0.000       0.000       0.000       0.000       0.000       0.000       0.000       0.000       0.000    
        0.000       0.000       0.000       0.000       0.000       2204.       2189.       2167.       2142.       2133.    
        2132.       2126.       2117.       2107.       2094.       2081.       2065.       2049.       2038.       2033.    
        2028.       2018.       2013.       2009.       2007.       2002.       1991.       1972.       1963.       1956.    
        1957.       1962.       1970.       2033.       1994.       1998.       2001.       2004.       2000.       1991.    
        1987.       1989.       1988.       1988.       1987.       1980.       1979.       1972.       1979.       1988.    
        1995.       0.000       0.000       0.000       0.000       0.000       0.000       0.000       0.000    
  27    0.000       0.000       0.000       0.000       0.000       0.000       0.000       0.000       0.000       0.000    
        0.000       0.000       0.000       0.000       0.000       0.000       0.000       0.000       0.000       0.000    
        0.000       0.000       0.000       0.000       2203.       2182.       2165.       2147.       2123.       2105.    
        2109.       2106.       2100.       2089.       2077.       2060.       2042.       2031.       2025.       2018.    
        2010.       2004.       1998.       1998.       1997.       1996.       1988.       1976.       1967.       1956.    
        1949.       1953.       2011.       2023.       2038.       1992.       1994.       1995.       1991.       1986.    
        1982.       1982.       1983.       1987.       1987.       1984.       1982.       1971.       1973.       1978.    
        1982.       0.000       0.000       0.000       0.000       0.000       0.000       0.000       0.000    
  28    0.000       0.000       0.000       0.000       0.000       0.000       0.000       0.000       0.000       0.000    
        0.000       0.000       0.000       0.000       0.000       0.000       0.000       0.000       0.000       0.000    
        0.000       0.000       0.000       2203.       2180.       2159.       2143.       2128.       2109.       2096.    
        2093.       2092.       2084.       2072.       2059.       2043.       2027.       2018.       2010.       2002.    
        1994.       1990.       1986.       1987.       1988.       1988.       1984.       1978.       1969.       1958.    
        1944.       1947.       2003.       2016.       2027.       2032.       1986.       1986.       1983.       1981.    
        1976.       1976.       1976.       1983.       1987.       1987.       1985.       1969.       1966.       1972.    
        1975.       1975.       0.000       0.000       0.000       0.000       0.000       0.000       0.000    
  29    0.000       0.000       0.000       0.000       0.000       0.000       0.000       0.000       0.000       0.000    
        0.000       0.000       0.000       0.000       0.000       0.000       0.000       0.000       0.000       0.000    
        0.000       2207.       2199.       2180.       2155.       2137.       2124.       2111.       2100.       2089.    
        2081.       2077.       2068.       2057.       2045.       2029.       2016.       2006.       1997.       1990.    
        1983.       1977.       1975.       1978.       1978.       1979.       1980.       1975.       1969.       2008.    
        1996.       1989.       1997.       2009.       2018.       2021.       2026.       2025.       1976.       1976.    
        1969.       1969.       1970.       1979.       1987.       1986.       1982.       1972.       1959.       1967.    
        1970.       1970.       0.000       0.000       0.000       0.000       0.000       0.000       0.000    
  30    0.000       0.000       0.000       0.000       0.000       0.000       0.000       0.000       0.000       0.000    
        0.000       0.000       0.000       0.000       0.000       0.000       0.000       0.000       0.000       2242.    
        2213.       2193.       2175.       2153.       2132.       2118.       2107.       2098.       2088.       2080.    
        2076.       2065.       2055.       2047.       2035.       2021.       2006.       1994.       1987.       1978.    
        1972.       1967.       1965.       1968.       1969.       1970.       1973.       1969.       1964.       2007.    
        1994.       1984.       1992.       2006.       2009.       2010.       2014.       2014.       2019.       2020.    
        2014.       2012.       1965.       1974.       1983.       1980.       1975.       1971.       1953.       1957.    
        1966.       1966.       0.000       0.000       0.000       0.000       0.000       0.000       0.000    
  31    0.000       0.000       0.000       0.000       0.000       0.000       0.000       0.000       0.000       0.000    
        0.000       0.000       0.000       0.000       0.000       0.000       0.000       0.000       2248.       2227.    
        2201.       2173.       2149.       2132.       2115.       2104.       2096.       2086.       2077.       2070.    
        2065.       2058.       2044.       2038.       2030.       2015.       1998.       1987.       1978.       1972.    
        1966.       1961.       1959.       1959.       1961.       1963.       1964.       1964.       1959.       2003.    
        1990.       1979.       1987.       1999.       2000.       2000.       2002.       2006.       2013.       2013.    
        2007.       2003.       2010.       1969.       1976.       1974.       1968.       1966.       1955.       1941.    
        1952.       1959.       0.000       0.000       0.000       0.000       0.000       0.000       0.000    
  32    0.000       0.000       0.000       0.000       0.000       0.000       0.000       0.000       0.000       0.000    
        0.000       0.000       0.000       0.000       0.000       0.000       2266.       2248.       2227.       2212.    
        2187.       2159.       2133.       2110.       2100.       2092.       2084.       2076.       2068.       2061.    
        2055.       2050.       2039.       2032.       2024.       2011.       1995.       1981.       1974.       1967.    
        1960.       1955.       1953.       1952.       1953.       1955.       1957.       1957.       1956.       1950.    
        1987.       1977.       1977.       1983.       1986.       1989.       1991.       1998.       2003.       2003.    
        1997.       1993.       2003.       2011.       1969.       1968.       1962.       1960.       2000.       1985.    
        1945.       1955.       0.000       0.000       0.000       0.000       0.000       0.000       0.000    
  33    0.000       0.000       0.000       0.000       0.000       0.000       0.000       0.000       0.000       0.000    
        0.000       0.000       0.000       0.000       0.000       2293.       2256.       2231.       2214.       2200.    
        2178.       2152.       2122.       2098.       2089.       2083.       2074.       2066.       2060.       2053.    
        2047.       2043.       2038.       2030.       2016.       2003.       1990.       1979.       1968.       1969.    
        1967.       1961.       1954.       1949.       1947.       1947.       1947.       1949.       1950.       1945.    
        1987.       1977.       1971.       1971.       1974.       1975.       1979.       1985.       1988.       1987.    
        1984.       1985.       1993.       2002.       2008.       2007.       2006.       2005.       1990.       1983.    
        1995.       1952.       1953.       0.000       0.000       0.000       0.000       0.000       0.000    
  34    0.000       0.000       0.000       0.000       0.000       0.000       0.000       0.000       0.000       0.000    
        0.000       0.000       0.000       0.000       2311.       2282.       2247.       2221.       2207.       2195.    
        2173.       2147.       2122.       2099.       2081.       2073.       2063.       2058.       2052.       2046.    
        2041.       2037.       2029.       2022.       2013.       1994.       1984.       1976.       1979.       1979.    
        1980.       1974.       1963.       1952.       1946.       1941.       1937.       1931.       1938.       1937.    
        1933.       1978.       1971.       1967.       1965.       1964.       1966.       1969.       1972.       1974.    
        1969.       1977.       1983.       1991.       1994.       1991.       1986.       1986.       1966.       1975.    
        1985.       1994.       1946.       0.000       0.000       0.000       0.000       0.000       0.000    
  35    0.000       0.000       0.000       0.000       0.000       0.000       0.000       0.000       0.000       0.000    
        0.000       0.000       0.000       2309.       2293.       2276.       2248.       2211.       2200.       2188.    
        2164.       2144.       2123.       2102.       2083.       2071.       2062.       2054.       2045.       2040.    
        2034.       2029.       2021.       2011.       1997.       1992.       1984.       1984.       1996.       2004.    
        2004.       1995.       1971.       1956.       1949.       1944.       1944.       1936.       1924.       1920.    
        1919.       1918.       1919.       1970.       1962.       1959.       1960.       1959.       1960.       1960.    
        1961.       1969.       1977.       1979.       1980.       1981.       1972.       1966.       1953.       1960.    
        1971.       1983.       1944.       1945.       0.000       0.000       0.000       0.000       0.000    
  36    0.000       0.000       0.000       0.000       0.000       0.000       0.000       0.000       0.000       0.000    
        0.000       0.000       0.000       2292.       2280.       2268.       2242.       2210.       2189.       2175.    
        2159.       2139.       2122.       2104.       2090.       2077.       2064.       2054.       2045.       2037.    
        2028.       2021.       2014.       2007.       2004.       1995.       1987.       1992.       2006.       2009.    
        2009.       1998.       1981.       1966.       1953.       1951.       1949.       1940.       1928.       1921.    
        1918.       1914.       1910.       1912.       1906.       1905.       1905.       1904.       1953.       1953.    
        1956.       1949.       1948.       1948.       1965.       1967.       1959.       1955.       1947.       1948.    
        1955.       1970.       1984.       1978.       1973.       0.000       0.000       0.000       0.000    
  37    0.000       0.000       0.000       0.000       0.000       0.000       0.000       0.000       0.000       0.000    
        0.000       0.000       2297.       2284.       2273.       2259.       2239.       2206.       2188.       2170.    
        2149.       2132.       2114.       2100.       2090.       2077.       2064.       2055.       2050.       2042.    
        2031.       2024.       2019.       2015.       2012.       2002.       1991.       1995.       2005.       2010.    
        2007.       1994.       1981.       1970.       1957.       1958.       1954.       1939.       1930.       1925.    
        1921.       1916.       1913.       1910.       1908.       1905.       1903.       1902.       1952.       1950.    
        1951.       1906.       1908.       1907.       1904.       1934.       1944.       1940.       1939.       1940.    
        1944.       1952.       1959.       1948.       1963.       0.000       0.000       0.000       0.000    
  38    0.000       0.000       0.000       0.000       0.000       0.000       0.000       0.000       0.000       0.000    
        2324.       2303.       2291.       2277.       2266.       2254.       2236.       2208.       2195.       2172.    
        2156.       2142.       2123.       2102.       2096.       2085.       2071.       2060.       2055.       2047.    
        2037.       2033.       2029.       2023.       2020.       2010.       1997.       1997.       2003.       2011.    
        2004.       1988.       1979.       1971.       1965.       1967.       1962.       1947.       1936.       1929.    
        1924.       1919.       1916.       1914.       1912.       1908.       1905.       1904.       1952.       1951.    
        1897.       1893.       1893.       1893.       1893.       1890.       1938.       1935.       1933.       1931.    
        1930.       1933.       1937.       1939.       1926.       1913.       0.000       0.000       0.000    
  39    0.000       0.000       0.000       0.000       0.000       0.000       0.000       2390.       2363.       2343.    
        2319.       2302.       2284.       2272.       2263.       2251.       2234.       2217.       2201.       2187.    
        2163.       2146.       2126.       2111.       2107.       2096.       2077.       2067.       2061.       2050.    
        2045.       2041.       2033.       2027.       2026.       2016.       2002.       2001.       2005.       2014.    
        2010.       1991.       1984.       1975.       1976.       1980.       1977.       1965.       1945.       1934.    
        1929.       1923.       1920.       1919.       1917.       1915.       1912.       1909.       1906.       1904.    
        1903.       1907.       1915.       1921.       1913.       1931.       1942.       1933.       1928.       1899.    
        1900.       1903.       1906.       1909.       1909.       1908.       0.000       0.000       0.000    
  40    0.000       0.000       0.000       0.000       0.000       0.000       2414.       2392.       2363.       2340.    
        2318.       2298.       2285.       2274.       2263.       2253.       2241.       2226.       2211.       2191.    
        2168.       2148.       2132.       2128.       2127.       2107.       2092.       2080.       2068.       2057.    
        2054.       2046.       2040.       2035.       2031.       2021.       2004.       2008.       2017.       2020.    
        2019.       2010.       1993.       1982.       1984.       1994.       1989.       1974.       1953.       1944.    
        1935.       1930.       1930.       1927.       1928.       1929.       1926.       1929.       1924.       1910.    
        1908.       1917.       1931.       1936.       1938.       1968.       1969.       1941.       1934.       1929.    
        1925.       1921.       1918.       1916.       1914.       1913.       0.000       0.000       0.000    
  41    0.000       0.000       0.000       0.000       0.000       2448.       2432.       2397.       2373.       2348.    
        2323.       2303.       2287.       2276.       2270.       2262.       2252.       2239.       2213.       2194.    
        2178.       2158.       2145.       2141.       2137.       2124.       2103.       2089.       2072.       2068.    
        2059.       2051.       2044.       2039.       2034.       2023.       2010.       2020.       2029.       2030.    
        2026.       2020.       2005.       1992.       1990.       2006.       2001.       1984.       1969.       1952.    
        1946.       1942.       1944.       1943.       1942.       1949.       1942.       1947.       1932.       1919.    
        1915.       1926.       1937.       1944.       1947.       1947.       1982.       1955.       1942.       1934.    
        1929.       1924.       1921.       1918.       1918.       0.000       0.000       0.000       0.000    
  42    0.000       0.000       0.000       0.000       0.000       2465.       2453.       2421.       2393.       2362.    
        2329.       2308.       2296.       2286.       2287.       2282.       2275.       2255.       2224.       2202.    
        2184.       2170.       2152.       2138.       2130.       2118.       2100.       2089.       2082.       2073.    
        2063.       2053.       2049.       2044.       2037.       2024.       2020.       2036.       2041.       2038.    
        2035.       2026.       2013.       2005.       2000.       2002.       2012.       2006.       1993.       1965.    
        1961.       1959.       1962.       1964.       1964.       1964.       1960.       1950.       1935.       1925.    
        1923.       1934.       1945.       1951.       1953.       1997.       1983.       1962.       1947.       1939.    
        1932.       1926.       1924.       1923.       1922.       0.000       0.000       0.000       0.000    
  43    0.000       0.000       0.000       0.000       0.000       2481.       2469.       2430.       2399.       2368.    
        2338.       2317.       2312.       2309.       2305.       2299.       2293.       2273.       2246.       2212.    
        2194.       2179.       2161.       2152.       2137.       2126.       2117.       2108.       2093.       2077.    
        2067.       2062.       2055.       2048.       2040.       2026.       2029.       2045.       2050.       2046.    
        2045.       2044.       2024.       2013.       2008.       2010.       2021.       2021.       2012.       1990.    
        1987.       1983.       1985.       1986.       1983.       1976.       1966.       1952.       1943.       1930.    
        1929.       1939.       1950.       1958.       1958.       2000.       1986.       1967.       1951.       1942.    
        1935.       1931.       1927.       1931.       1881.       0.000       0.000       0.000       0.000    
  44    0.000       0.000       0.000       0.000       0.000       2484.       2466.       2433.       2397.       2365.    
        2341.       2328.       2320.       2313.       2304.       2298.       2293.       2286.       2263.       2236.    
        2208.       2180.       2184.       2172.       2157.       2143.       2130.       2119.       2102.       2082.    
        2074.       2069.       2060.       2052.       2041.       2029.       2036.       2055.       2063.       2057.    
        2051.       2052.       2051.       2035.       2020.       2021.       2032.       2032.       2025.       2020.    
        2015.       2010.       2009.       2007.       1998.       1990.       1975.       1953.       1947.       1937.    
        1936.       1941.       1951.       1961.       1961.       2001.       1989.       1974.       1956.       1950.    
        1941.       1935.       1932.       1893.       1891.       0.000       0.000       0.000       0.000    
  45    0.000       0.000       0.000       2485.       2477.       2476.       2459.       2429.       2385.       2359.    
        2337.       2323.       2312.       2300.       2284.       2276.       2275.       2270.       2260.       2238.    
        2204.       2210.       2197.       2181.       2168.       2154.       2137.       2122.       2106.       2088.    
        2080.       2072.       2065.       2056.       2043.       2032.       2045.       2066.       2078.       2072.    
        2061.       2052.       2049.       2044.       2033.       2029.       2042.       2042.       2043.       2044.    
        2041.       2037.       2037.       2031.       2014.       2001.       1980.       1961.       1953.       1946.    
        1940.       1943.       1951.       1959.       1959.       2000.       1990.       1977.       1967.       1958.    
        1943.       1940.       1944.       1907.       1909.       0.000       0.000       0.000       0.000    
  46    0.000       0.000       0.000       2486.       2470.       2463.       2450.       2414.       2377.       2351.    
        2327.       2310.       2296.       2282.       2271.       2266.       2259.       2251.       2236.       2236.    
        2239.       2228.       2208.       2197.       2182.       2161.       2139.       2124.       2111.       2097.    
        2084.       2075.       2067.       2055.       2044.       2036.       2049.       2069.       2083.       2078.    
        2069.       2058.       2050.       2043.       2035.       2033.       2044.       2050.       2057.       2062.    
        2064.       2068.       2064.       2050.       2035.       2012.       1988.       1968.       1961.       1956.    
        1947.       1952.       1955.       1962.       1959.       1997.       1988.       1977.       1968.       1956.    
        1949.       1946.       1949.       1910.       1922.       0.000       0.000       0.000       0.000    
  47    0.000       0.000       0.000       2487.       2469.       2456.       2436.       2406.       2370.       2341.    
        2319.       2296.       2286.       2279.       2270.       2265.       2264.       2262.       2259.       2258.    
        2250.       2238.       2223.       2207.       2188.       2163.       2143.       2131.       2119.       2106.    
        2091.       2078.       2069.       2060.       2051.       2039.       2045.       2061.       2073.       2073.    
        2069.       2066.       2056.       2045.       2036.       2035.       2043.       2052.       2063.       2073.    
        2082.       2090.       2085.       2069.       2049.       2025.       1995.       1977.       1965.       1957.    
        1954.       1959.       1962.       1964.       1959.       1946.       1987.       1977.       1968.       1957.    
        1956.       1952.       1903.       1913.       1924.       0.000       0.000       0.000       0.000    
  48    0.000       0.000       0.000       2492.       2475.       2454.       2425.       2395.       2360.       2336.    
        2307.       2292.       2286.       2280.       2277.       2274.       2280.       2284.       2283.       2281.    
        2263.       2245.       2227.       2208.       2187.       2165.       2147.       2138.       2128.       2115.    
        2099.       2086.       2075.       2069.       2069.       2064.       2048.       2051.       2061.       2067.    
        2070.       2074.       2071.       2060.       2047.       2037.       2041.       2057.       2070.       2083.    
        2099.       2107.       2098.       2086.       2069.       2041.       2010.       1988.       1970.       1961.    
        1964.       1967.       1970.       1967.       1956.       1948.       1939.       1981.       1973.       1966.    
        1912.       1909.       1912.       1917.       1929.       1941.       0.000       0.000       0.000    
  49    0.000       0.000       0.000       2494.       2478.       2457.       2415.       2385.       2356.       2333.    
        2311.       2295.       2294.       2291.       2286.       2291.       2295.       2298.       2300.       2283.    
        2261.       2243.       2226.       2205.       2190.       2171.       2160.       2145.       2133.       2119.    
        2105.       2095.       2083.       2080.       2079.       2078.       2064.       2051.       2055.       2063.    
        2073.       2080.       2083.       2078.       2065.       2047.       2039.       2053.       2069.       2091.    
        2111.       2127.       2118.       2101.       2083.       2056.       2026.       2000.       1982.       1970.    
        1972.       1976.       1978.       1975.       1960.       1951.       1944.       1937.       1979.       1923.    
        1920.       1916.       1921.       1928.       1935.       1943.       0.000       0.000       0.000    
  50    0.000       0.000       0.000       2502.       2485.       2449.       2412.       2381.       2346.       2331.    
        2322.       2305.       2309.       2307.       2307.       2312.       2311.       2303.       2288.       2270.    
        2253.       2237.       2222.       2204.       2191.       2178.       2167.       2156.       2141.       2125.    
        2110.       2101.       2092.       2087.       2084.       2080.       2068.       2057.       2055.       2064.    
        2075.       2084.       2091.       2092.       2086.       2062.       2047.       2048.       2063.       2088.    
        2116.       2136.       2136.       2120.       2097.       2074.       2042.       2018.       1998.       1983.    
        1978.       1984.       1992.       1989.       1972.       1958.       1949.       1942.       1935.       1931.    
        1927.       1923.       1930.       1936.       1942.       1949.       0.000       0.000       0.000    
  51    0.000       0.000       0.000       2502.       2478.       2437.       2407.       2375.       2338.       2327.    
        2317.       2322.       2333.       2331.       2336.       2336.       2320.       2293.       2274.       2260.    
        2248.       2237.       2224.       2211.       2202.       2186.       2170.       2158.       2147.       2131.    
        2117.       2106.       2097.       2091.       2085.       2079.       2067.       2059.       2058.       2064.    
        2075.       2086.       2094.       2099.       2098.       2080.       2055.       2047.       2052.       2079.    
        2109.       2135.       2152.       2137.       2111.       2086.       2058.       2032.       2011.       2001.    
        1987.       1991.       2000.       2003.       1990.       1969.       1954.       1948.       1942.       1944.    
        1939.       1928.       1935.       1944.       1950.       1956.       0.000       0.000       0.000    
  52    0.000       0.000       2508.       2495.       2466.       2425.       2395.       2368.       2341.       2327.    
        2333.       2341.       2350.       2356.       2358.       2352.       2338.       2312.       2294.       2273.    
        2255.       2243.       2233.       2220.       2209.       2194.       2175.       2160.       2147.       2136.    
        2124.       2110.       2100.       2092.       2084.       2076.       2067.       2059.       2060.       2064.    
        2074.       2085.       2096.       2102.       2107.       2099.       2076.       2055.       2051.       2066.    
        2099.       2131.       2151.       2148.       2128.       2101.       2068.       2044.       2024.       2011.    
        2001.       2002.       2007.       2009.       2004.       1983.       1964.       1956.       1957.       1957.    
        1953.       1938.       1940.       1954.       1961.       1967.       0.000       0.000       0.000    
  53    0.000       0.000       2514.       2494.       2456.       2421.       2392.       2359.       2345.       2339.    
        2349.       2356.       2368.       2374.       2375.       2372.       2362.       2342.       2314.       2293.    
        2274.       2255.       2243.       2232.       2223.       2207.       2185.       2166.       2148.       2135.    
        2124.       2113.       2102.       2093.       2084.       2075.       2069.       2062.       2062.       2068.    
        2078.       2092.       2102.       2113.       2119.       2118.       2097.       2071.       2064.       2066.    
        2094.       2123.       2149.       2155.       2136.       2107.       2080.       2054.       2033.       2020.    
        2015.       2013.       2013.       2013.       2006.       1989.       1973.       1966.       1967.       1969.    
        1966.       1955.       1947.       1963.       1980.       1983.       1992.       0.000       0.000    
  54    0.000       0.000       2517.       2486.       2443.       2416.       2399.       2382.       2359.       2359.    
        2363.       2370.       2382.       2387.       2389.       2395.       2390.       2363.       2339.       2318.    
        2291.       2271.       2257.       2245.       2236.       2219.       2195.       2175.       2155.       2136.    
        2122.       2113.       2101.       2092.       2083.       2075.       2071.       2065.       2067.       2077.    
        2091.       2103.       2120.       2132.       2143.       2143.       2118.       2091.       2082.       2074.    
        2089.       2120.       2146.       2158.       2145.       2114.       2089.       2067.       2044.       2030.    
        2025.       2026.       2023.       2020.       2016.       1998.       1983.       1976.       1980.       1983.    
        1984.       1972.       1959.       1967.       1983.       1991.       1996.       0.000       0.000    
  55    0.000       2544.       2516.       2487.       2463.       2438.       2413.       2395.       2371.       2377.    
        2375.       2386.       2394.       2399.       2403.       2409.       2411.       2383.       2358.       2337.    
        2310.       2287.       2269.       2255.       2243.       2227.       2205.       2184.       2162.       2139.    
        2124.       2112.       2101.       2091.       2083.       2076.       2073.       2068.       2074.       2087.    
        2102.       2119.       2137.       2153.       2165.       2166.       2135.       2110.       2096.       2089.    
        2095.       2117.       2142.       2162.       2155.       2124.       2099.       2083.       2064.       2042.    
        2038.       2036.       2034.       2028.       2021.       2008.       1997.       1988.       1992.       1997.    
        1998.       1996.       1971.       1978.       1988.       1995.       2002.       0.000       0.000    
  56    0.000       2539.       2505.       2475.       2465.       2455.       2434.       2405.       2396.       2386.    
        2383.       2399.       2408.       2409.       2414.       2422.       2423.       2401.       2380.       2358.    
        2335.       2308.       2284.       2267.       2250.       2236.       2215.       2193.       2168.       2142.    
        2129.       2116.       2102.       2091.       2085.       2080.       2076.       2073.       2080.       2094.    
        2112.       2131.       2152.       2169.       2184.       2184.       2149.       2128.       2112.       2105.    
        2100.       2113.       2141.       2164.       2162.       2132.       2112.       2094.       2076.       2058.    
        2048.       2049.       2048.       2038.       2026.       2016.       2006.       2000.       2002.       2010.    
        2015.       2010.       1982.       1987.       1999.       2005.       2006.       0.000       0.000    
  57    2568.       2529.       2479.       2464.       2467.       2462.       2437.       2438.       2411.       2397.    
        2412.       2423.       2424.       2422.       2428.       2435.       2436.       2421.       2404.       2380.    
        2353.       2331.       2299.       2280.       2260.       2243.       2225.       2203.       2173.       2151.    
        2133.       2117.       2104.       2093.       2086.       2081.       2077.       2078.       2085.       2097.    
        2112.       2132.       2156.       2171.       2186.       2193.       2172.       2144.       2128.       2119.    
        2111.       2119.       2141.       2168.       2175.       2145.       2125.       2107.       2091.       2076.    
        2062.       2067.       2065.       2052.       2036.       2026.       2018.       2010.       2011.       2018.    
        2025.       2020.       1993.       2000.       2005.       2009.       2011.       0.000       0.000    
  58    2571.       2527.       2483.       2465.       2455.       2447.       2460.       2456.       2422.       2424.    
        2434.       2443.       2444.       2435.       2440.       2446.       2450.       2437.       2415.       2391.    
        2365.       2343.       2319.       2293.       2273.       2253.       2235.       2210.       2182.       2157.    
        2140.       2122.       2108.       2097.       2088.       2083.       2080.       2080.       2086.       2095.    
        2108.       2127.       2146.       2163.       2184.       2196.       2201.       2167.       2148.       2136.    
        2128.       2128.       2145.       2172.       2184.       2160.       2140.       2123.       2107.       2090.    
        2079.       2083.       2080.       2068.       2052.       2039.       2029.       2023.       2023.       2028.    
        2025.       2017.       2004.       2011.       2013.       2014.       2016.       0.000       0.000    
  59    2578.       2541.       2494.       2472.       2461.       2453.       2478.       2476.       2464.       2450.    
        2456.       2463.       2460.       2454.       2454.       2456.       2464.       2449.       2426.       2402.    
        2372.       2352.       2330.       2303.       2282.       2263.       2241.       2215.       2187.       2165.    
        2144.       2128.       2111.       2100.       2090.       2085.       2081.       2082.       2088.       2095.    
        2108.       2125.       2145.       2163.       2182.       2200.       2207.       2193.       2166.       2154.    
        2145.       2142.       2149.       2176.       2190.       2175.       2155.       2141.       2126.       2109.    
        2096.       2100.       2094.       2082.       2066.       2049.       2043.       2035.       2037.       2036.    
        2026.       2017.       2015.       2019.       2018.       2020.       2026.       2033.       0.000    
  60    0.000       2562.       2530.       2505.       2495.       2480.       2505.       2508.       2503.       2490.    
        2490.       2483.       2471.       0.000       0.000       0.000       2473.       2459.       2436.       2409.    
        2383.       2358.       2334.       2318.       2302.       2276.       2249.       2220.       2197.       2172.    
        2147.       2133.       2117.       2103.       2094.       2087.       2083.       2084.       2088.       2096.    
        2107.       2126.       2145.       2162.       2185.       2208.       2218.       2210.       2189.       2168.    
        2159.       2156.       2155.       2175.       2192.       2186.       2171.       2158.       2141.       2128.    
        2118.       2124.       2118.       2100.       2082.       2065.       2058.       2052.       2050.       2041.    
        2028.       2021.       2023.       2026.       2025.       2029.       2037.       2042.       2045.    
  61    0.000       0.000       2559.       2551.       2532.       2529.       2528.       2524.       2533.       2535.    
        2518.       0.000       0.000       0.000       0.000       0.000       0.000       2466.       2439.       2414.    
        2388.       2360.       2338.       2320.       2312.       2280.       2253.       2227.       2203.       2175.    
        2155.       2141.       2120.       2107.       2098.       2089.       2086.       2085.       2089.       2096.    
        2108.       2124.       2144.       2164.       2186.       2212.       2233.       2229.       2206.       2186.    
        2171.       2165.       2166.       2174.       2192.       2196.       2188.       2175.       2158.       2145.    
        2135.       2141.       2141.       2119.       2100.       2084.       2072.       2063.       2057.       2042.    
        2033.       2027.       2031.       2033.       2033.       2040.       2046.       2049.       2052.    
  62    0.000       0.000       0.000       2556.       0.000       0.000       0.000       0.000       0.000       0.000    
        0.000       0.000       0.000       0.000       0.000       0.000       0.000       0.000       0.000       2417.    
        2391.       2363.       2337.       2322.       2307.       2279.       2258.       2233.       2206.       2181.    
        2160.       2143.       2125.       2111.       2101.       2093.       2089.       2087.       2089.       2097.    
        2108.       2123.       2144.       2162.       2183.       2210.       2236.       2243.       2231.       2203.    
        2187.       2177.       2176.       2178.       2190.       2204.       2204.       2193.       2179.       2165.    
        2149.       2159.       2156.       2140.       2119.       2102.       2088.       2072.       2057.       2046.    
        2037.       2036.       2039.       2038.       2042.       2047.       2053.       2057.       2060.    
  63    0.000       0.000       0.000       0.000       0.000       0.000       0.000       0.000       0.000       0.000    
        0.000       0.000       0.000       0.000       0.000       0.000       0.000       0.000       0.000       2419.    
        2394.       2359.       2337.       2321.       2307.       2282.       2261.       2237.       2213.       2183.    
        2163.       2148.       2133.       2114.       2103.       2096.       2092.       2089.       2092.       2098.    
        2107.       2122.       2141.       2159.       2182.       2202.       2228.       2251.       2248.       2228.    
        2201.       2191.       2186.       2185.       2195.       2208.       2219.       2213.       2202.       2194.    
        2182.       2180.       2177.       2159.       2141.       2117.       2097.       2081.       2065.       2050.    
        2042.       2043.       2044.       2045.       2048.       2054.       2059.       2064.       2068.    
  64    0.000       0.000       0.000       0.000       0.000       0.000       0.000       0.000       0.000       0.000    
        0.000       0.000       0.000       0.000       0.000       0.000       0.000       0.000       0.000       0.000    
        0.000       0.000       0.000       0.000       2309.       2289.       2267.       2244.       2221.       2189.    
        2170.       2151.       2138.       2123.       2106.       2098.       2094.       2092.       2093.       2097.    
        2107.       2119.       2138.       2156.       2177.       2200.       2224.       2246.       2258.       2250.    
        2227.       2211.       2206.       2198.       2200.       2211.       2224.       2232.       2228.       2217.    
        2208.       2204.       2195.       2181.       2160.       2131.       2103.       2085.       2069.       2055.    
        2049.       2049.       2050.       2050.       2053.       2058.       2065.       2072.       2077.    
  65    0.000       0.000       0.000       0.000       0.000       0.000       0.000       0.000       0.000       0.000    
        0.000       0.000       0.000       0.000       0.000       0.000       0.000       0.000       0.000       0.000    
        0.000       0.000       0.000       0.000       0.000       0.000       0.000       0.000       0.000       0.000    
        0.000       0.000       0.000       2127.       2114.       2101.       2096.       2094.       2094.       2098.    
        2105.       2118.       2133.       2150.       2172.       0.000       0.000       0.000       0.000       2261.    
        2250.       2240.       2235.       2219.       2207.       2212.       2225.       2240.       2246.       2238.    
        2231.       2222.       2208.       2192.       2170.       2141.       2111.       2087.       2074.       2061.    
        2058.       2056.       2057.       2057.       2057.       2063.       2069.       2076.       2081.    
  66    0.000       0.000       0.000       0.000       0.000       0.000       0.000       0.000       0.000       0.000    
        0.000       0.000       0.000       0.000       0.000       0.000       0.000       0.000       0.000       0.000    
        0.000       0.000       0.000       0.000       0.000       0.000       0.000       0.000       0.000       0.000    
        0.000       0.000       0.000       0.000       0.000       2106.       2100.       0.000       0.000       0.000    
        0.000       0.000       0.000       0.000       0.000       0.000       0.000       0.000       0.000       0.000    
        2258.       2255.       2254.       2237.       2222.       2218.       2228.       2245.       2259.       2256.    
        2248.       2234.       2219.       2198.       2176.       2145.       2114.       2093.       2081.       2073.    
        2071.       2066.       2065.       2062.       2060.       2064.       2071.       2077.       2085.    
  67    0.000       0.000       0.000       0.000       0.000       0.000       0.000       0.000       0.000       0.000    
        0.000       0.000       0.000       0.000       0.000       0.000       0.000       0.000       0.000       0.000    
        0.000       0.000       0.000       0.000       0.000       0.000       0.000       0.000       0.000       0.000    
        0.000       0.000       0.000       0.000       0.000       0.000       0.000       0.000       0.000       0.000    
        0.000       0.000       0.000       0.000       0.000       0.000       0.000       0.000       0.000       0.000    
        0.000       0.000       2262.       2252.       2234.       2226.       2231.       2245.       2264.       2269.    
        2260.       2247.       2222.       2202.       2180.       2150.       2123.       2098.       2089.       2084.    
        2076.       0.000       0.000       0.000       0.000       0.000       0.000       0.000       0.000    
  68    0.000       0.000       0.000       0.000       0.000       0.000       0.000       0.000       0.000       0.000    
        0.000       0.000       0.000       0.000       0.000       0.000       0.000       0.000       0.000       0.000    
        0.000       0.000       0.000       0.000       0.000       0.000       0.000       0.000       0.000       0.000    
        0.000       0.000       0.000       0.000       0.000       0.000       0.000       0.000       0.000       0.000    
        0.000       0.000       0.000       0.000       0.000       0.000       0.000       0.000       0.000       0.000    
        0.000       0.000       0.000       2260.       2244.       2234.       2231.       2241.       2257.       2277.    
        2266.       2252.       2230.       2208.       2186.       2156.       2130.       2109.       0.000       0.000    
        0.000       0.000       0.000       0.000       0.000       0.000       0.000       0.000       0.000    
  69    0.000       0.000       0.000       0.000       0.000       0.000       0.000       0.000       0.000       0.000    
        0.000       0.000       0.000       0.000       0.000       0.000       0.000       0.000       0.000       0.000    
        0.000       0.000       0.000       0.000       0.000       0.000       0.000       0.000       0.000       0.000    
        0.000       0.000       0.000       0.000       0.000       0.000       0.000       0.000       0.000       0.000    
        0.000       0.000       0.000       0.000       0.000       0.000       0.000       0.000       0.000       0.000    
        0.000       0.000       0.000       0.000       0.000       0.000       0.000       0.000       0.000       0.000    
        2279.       2261.       2240.       2218.       2195.       2167.       2142.       0.000       0.000       0.000    
        0.000       0.000       0.000       0.000       0.000       0.000       0.000       0.000       0.000    
  70    0.000       0.000       0.000       0.000       0.000       0.000       0.000       0.000       0.000       0.000    
        0.000       0.000       0.000       0.000       0.000       0.000       0.000       0.000       0.000       0.000    
        0.000       0.000       0.000       0.000       0.000       0.000       0.000       0.000       0.000       0.000    
        0.000       0.000       0.000       0.000       0.000       0.000       0.000       0.000       0.000       0.000    
        0.000       0.000       0.000       0.000       0.000       0.000       0.000       0.000       0.000       0.000    
        0.000       0.000       0.000       0.000       0.000       0.000       0.000       0.000       0.000       0.000    
        0.000       2275.       2254.       2230.       2208.       2177.       0.000       0.000       0.000       0.000    
        0.000       0.000       0.000       0.000       0.000       0.000       0.000       0.000       0.000    
  71    0.000       0.000       0.000       0.000       0.000       0.000       0.000       0.000       0.000       0.000    
        0.000       0.000       0.000       0.000       0.000       0.000       0.000       0.000       0.000       0.000    
        0.000       0.000       0.000       0.000       0.000       0.000       0.000       0.000       0.000       0.000    
        0.000       0.000       0.000       0.000       0.000       0.000       0.000       0.000       0.000       0.000    
        0.000       0.000       0.000       0.000       0.000       0.000       0.000       0.000       0.000       0.000    
        0.000       0.000       0.000       0.000       0.000       0.000       0.000       0.000       0.000       0.000    
        0.000       0.000       2269.       2243.       0.000       0.000       0.000       0.000       0.000       0.000    
        0.000       0.000       0.000       0.000       0.000       0.000       0.000       0.000       0.000    



             MODEL LAYER BOTTOM EL. FOR LAYER   2
 READING ON UNIT   11 WITH FORMAT: (FREE)              

            1           2           3           4           5           6           7           8           9          10
           11          12          13          14          15          16          17          18          19          20
           21          22          23          24          25          26          27          28          29          30
           31          32          33          34          35          36          37          38          39          40
           41          42          43          44          45          46          47          48          49          50
           51          52          53          54          55          56          57          58          59          60
           61          62          63          64          65          66          67          68          69          70
           71          72          73          74          75          76          77          78          79
 ........................................................................................................................
   1    0.000       0.000       0.000       0.000       0.000       0.000       0.000       0.000       0.000       0.000    
        0.000       0.000       0.000       0.000       0.000       0.000       0.000       0.000       0.000       0.000    
        0.000       0.000       0.000       0.000       0.000       0.000       0.000       0.000       0.000       0.000    
        0.000       0.000       0.000       0.000       0.000       0.000       0.000       0.000       0.000       0.000    
        0.000       0.000       0.000       0.000       0.000       0.000       0.000       0.000       0.000       0.000    
        0.000       2056.       2046.       0.000       0.000       0.000       0.000       0.000       0.000       0.000    
        0.000       0.000       0.000       0.000       0.000       0.000       0.000       0.000       0.000       0.000    
        0.000       0.000       0.000       0.000       0.000       0.000       0.000       0.000       0.000    
   2    0.000       0.000       0.000       0.000       0.000       0.000       0.000       0.000       0.000       0.000    
        0.000       0.000       0.000       0.000       0.000       0.000       0.000       0.000       0.000       0.000    
        0.000       0.000       0.000       0.000       0.000       0.000       0.000       0.000       0.000       0.000    
        0.000       0.000       0.000       0.000       0.000       0.000       0.000       0.000       0.000       0.000    
        0.000       0.000       0.000       0.000       0.000       0.000       0.000       0.000       0.000       0.000    
        0.000       2054.       2040.       2015.       0.000       0.000       0.000       0.000       0.000       0.000    
        0.000       0.000       0.000       0.000       0.000       0.000       0.000       0.000       0.000       0.000    
        0.000       0.000       0.000       0.000       0.000       0.000       0.000       0.000       0.000    
   3    0.000       0.000       0.000       0.000       0.000       0.000       0.000       0.000       0.000       0.000    
        0.000       0.000       0.000       0.000       0.000       0.000       0.000       0.000       0.000       0.000    
        0.000       0.000       0.000       0.000       0.000       0.000       0.000       0.000       0.000       0.000    
        0.000       0.000       0.000       0.000       0.000       0.000       0.000       0.000       0.000       0.000    
        0.000       0.000       0.000       0.000       0.000       0.000       0.000       0.000       0.000       0.000    
        0.000       2047.       2032.       2005.       0.000       0.000       0.000       0.000       0.000       0.000    
        0.000       0.000       0.000       0.000       0.000       0.000       0.000       0.000       0.000       0.000    
        0.000       0.000       0.000       0.000       0.000       0.000       0.000       0.000       0.000    
   4    0.000       0.000       0.000       0.000       0.000       0.000       0.000       0.000       0.000       0.000    
        0.000       0.000       0.000       0.000       0.000       0.000       0.000       0.000       0.000       0.000    
        0.000       0.000       0.000       0.000       0.000       0.000       0.000       0.000       0.000       0.000    
        0.000       0.000       0.000       0.000       0.000       0.000       0.000       0.000       0.000       0.000    
        0.000       0.000       0.000       0.000       0.000       0.000       0.000       0.000       0.000       0.000    
        0.000       2040.       2021.       2004.       2003.       0.000       0.000       0.000       0.000       0.000    
        0.000       0.000       0.000       0.000       0.000       0.000       0.000       0.000       0.000       0.000    
        0.000       0.000       0.000       0.000       0.000       0.000       0.000       0.000       0.000    
   5    0.000       0.000       0.000       0.000       0.000       0.000       0.000       0.000       0.000       0.000    
        0.000       0.000       0.000       0.000       0.000       0.000       0.000       0.000       0.000       0.000    
        0.000       0.000       0.000       0.000       0.000       0.000       0.000       0.000       0.000       0.000    
        0.000       0.000       0.000       0.000       0.000       0.000       0.000       0.000       0.000       0.000    
        0.000       0.000       0.000       0.000       0.000       0.000       0.000       0.000       0.000       0.000    
        0.000       2034.       2014.       2003.       2001.       2001.       1999.       0.000       0.000       0.000    
        0.000       0.000       0.000       0.000       0.000       0.000       0.000       0.000       0.000       0.000    
        0.000       0.000       0.000       0.000       0.000       0.000       0.000       0.000       0.000    
   6    0.000       0.000       0.000       0.000       0.000       0.000       0.000       0.000       0.000       0.000    
        0.000       0.000       0.000       0.000       0.000       0.000       0.000       0.000       0.000       0.000    
        0.000       0.000       0.000       0.000       0.000       0.000       0.000       0.000       0.000       0.000    
        0.000       0.000       0.000       0.000       0.000       0.000       0.000       0.000       0.000       0.000    
        0.000       0.000       0.000       0.000       0.000       0.000       0.000       0.000       0.000       0.000    
        0.000       2032.       2015.       2004.       2002.       1999.       1997.       1999.       2003.       0.000    
        0.000       0.000       0.000       2005.       2007.       0.000       0.000       0.000       0.000       0.000    
        0.000       0.000       0.000       0.000       0.000       0.000       0.000       0.000       0.000    
   7    0.000       0.000       0.000       0.000       0.000       0.000       0.000       0.000       0.000       0.000    
        0.000       0.000       0.000       0.000       0.000       0.000       0.000       0.000       0.000       0.000    
        0.000       0.000       0.000       0.000       0.000       0.000       0.000       0.000       0.000       0.000    
        0.000       0.000       0.000       0.000       0.000       0.000       0.000       0.000       0.000       0.000    
        0.000       0.000       0.000       0.000       0.000       0.000       0.000       0.000       0.000       0.000    
        0.000       2034.       2019.       2015.       2003.       1996.       1994.       1997.       2002.       2005.    
        2009.       2007.       2004.       2002.       2005.       2006.       0.000       0.000       0.000       0.000    
        0.000       0.000       0.000       0.000       0.000       0.000       0.000       0.000       0.000    
   8    0.000       0.000       0.000       0.000       0.000       0.000       0.000       0.000       0.000       0.000    
        0.000       0.000       0.000       0.000       0.000       0.000       0.000       0.000       0.000       0.000    
        0.000       0.000       0.000       0.000       0.000       0.000       0.000       0.000       0.000       0.000    
        0.000       0.000       0.000       0.000       0.000       0.000       0.000       0.000       0.000       0.000    
        0.000       0.000       0.000       0.000       0.000       0.000       0.000       0.000       0.000       0.000    
        0.000       2041.       2029.       2019.       2003.       1992.       1992.       1994.       2000.       2006.    
        2009.       2008.       2005.       2000.       1999.       2000.       2000.       2001.       0.000       0.000    
        0.000       0.000       0.000       0.000       0.000       0.000       0.000       0.000       0.000    
   9    0.000       0.000       0.000       0.000       0.000       0.000       0.000       0.000       0.000       0.000    
        0.000       0.000       0.000       0.000       0.000       0.000       0.000       0.000       0.000       0.000    
        0.000       0.000       0.000       0.000       0.000       0.000       0.000       0.000       0.000       0.000    
        0.000       0.000       0.000       0.000       0.000       0.000       0.000       0.000       0.000       0.000    
        0.000       0.000       0.000       0.000       0.000       0.000       0.000       0.000       0.000       0.000    
        2043.       2035.       2024.       2015.       2004.       1993.       1989.       1991.       1993.       2002.    
        2008.       2008.       2005.       1999.       1993.       1991.       1994.       1999.       2003.       0.000    
        0.000       0.000       0.000       0.000       0.000       0.000       0.000       0.000       0.000    
  10    0.000       0.000       0.000       0.000       0.000       0.000       0.000       0.000       0.000       0.000    
        0.000       0.000       0.000       0.000       0.000       0.000       0.000       0.000       0.000       0.000    
        0.000       0.000       0.000       0.000       0.000       0.000       0.000       0.000       0.000       0.000    
        0.000       0.000       0.000       0.000       0.000       0.000       0.000       0.000       0.000       0.000    
        0.000       0.000       0.000       0.000       0.000       0.000       0.000       0.000       0.000       2034.    
        2037.       2030.       2023.       2013.       2000.       1994.       1989.       1990.       1991.       1998.    
        2003.       2004.       2002.       1999.       1994.       1982.       1989.       1998.       2005.       2010.    
        0.000       0.000       0.000       0.000       0.000       0.000       0.000       0.000       0.000    
  11    0.000       0.000       0.000       0.000       0.000       0.000       0.000       0.000       0.000       0.000    
        0.000       0.000       0.000       0.000       0.000       0.000       0.000       0.000       0.000       0.000    
        0.000       0.000       0.000       0.000       0.000       0.000       0.000       0.000       0.000       0.000    
        0.000       0.000       0.000       0.000       0.000       0.000       0.000       0.000       0.000       0.000    
        0.000       0.000       0.000       0.000       0.000       0.000       0.000       0.000       2033.       2031.    
        2029.       2026.       2022.       2013.       2001.       1994.       1989.       1988.       1988.       1991.    
        1995.       1995.       1996.       1995.       1990.       1980.       1987.       1995.       2002.       2008.    
        2013.       0.000       0.000       0.000       0.000       0.000       0.000       0.000       0.000    
  12    0.000       0.000       0.000       0.000       0.000       0.000       0.000       0.000       0.000       0.000    
        0.000       0.000       0.000       0.000       0.000       0.000       0.000       0.000       0.000       0.000    
        0.000       0.000       0.000       0.000       0.000       0.000       0.000       0.000       0.000       0.000    
        0.000       0.000       0.000       0.000       0.000       0.000       0.000       0.000       0.000       0.000    
        0.000       2070.       2064.       0.000       0.000       0.000       0.000       2039.       2035.       2029.    
        2026.       2020.       2019.       2018.       2004.       1995.       1991.       1986.       1984.       1985.    
        1987.       1989.       1990.       1989.       1984.       1977.       1980.       1988.       1995.       2006.    
        2011.       0.000       0.000       0.000       0.000       0.000       0.000       0.000       0.000    
  13    0.000       0.000       0.000       0.000       0.000       0.000       0.000       0.000       0.000       0.000    
        0.000       0.000       0.000       0.000       0.000       0.000       0.000       0.000       0.000       0.000    
        0.000       0.000       0.000       0.000       0.000       0.000       0.000       0.000       0.000       0.000    
        0.000       0.000       0.000       0.000       0.000       0.000       0.000       0.000       2071.       2068.    
        2067.       2065.       2054.       2050.       2048.       2047.       2044.       2040.       2033.       2027.    
        2022.       2017.       2014.       2011.       2005.       1997.       1991.       1985.       1981.       1979.    
        1980.       1981.       1986.       1984.       1979.       1971.       1972.       1979.       1991.       2004.    
        2006.       2007.       0.000       0.000       0.000       0.000       0.000       0.000       0.000    
  14    0.000       0.000       0.000       0.000       0.000       0.000       0.000       0.000       0.000       0.000    
        0.000       0.000       0.000       0.000       0.000       0.000       0.000       0.000       0.000       0.000    
        0.000       0.000       0.000       0.000       0.000       0.000       0.000       0.000       0.000       0.000    
        0.000       0.000       0.000       0.000       0.000       0.000       0.000       0.000       2071.       2061.    
        2055.       2051.       2041.       2040.       2040.       2044.       2043.       2038.       2031.       2025.    
        2020.       2015.       2011.       2007.       2003.       1999.       1993.       1987.       1981.       1975.    
        1975.       1977.       1980.       1980.       1972.       1964.       1963.       1970.       1981.       1996.    
        1999.       2001.       2001.       0.000       0.000       0.000       0.000       0.000       0.000    
  15    0.000       0.000       0.000       0.000       0.000       0.000       0.000       0.000       0.000       0.000    
        0.000       0.000       0.000       0.000       0.000       0.000       0.000       0.000       0.000       0.000    
        0.000       0.000       0.000       0.000       0.000       0.000       0.000       0.000       0.000       0.000    
        0.000       0.000       0.000       0.000       0.000       0.000       0.000       2080.       2069.       2061.    
        2053.       2036.       2028.       2025.       2026.       2033.       2035.       2034.       2029.       2023.    
        2017.       2012.       2007.       2003.       1999.       1996.       1994.       1989.       1983.       1974.    
        1970.       1973.       1975.       1973.       1970.       1961.       1956.       1961.       1968.       1980.    
        1988.       1993.       1997.       0.000       0.000       0.000       0.000       0.000       0.000    
  16    0.000       0.000       0.000       0.000       0.000       0.000       0.000       0.000       0.000       0.000    
        0.000       0.000       0.000       0.000       0.000       0.000       0.000       0.000       0.000       0.000    
        0.000       0.000       0.000       0.000       0.000       0.000       0.000       0.000       0.000       0.000    
        0.000       0.000       0.000       0.000       0.000       0.000       2090.       2078.       2069.       2058.    
        2047.       2038.       2033.       2029.       2014.       2019.       2020.       2023.       2022.       2019.    
        2015.       2008.       2003.       1998.       1994.       1992.       1990.       1988.       1984.       1980.    
        1966.       1969.       1972.       1971.       1969.       1961.       1953.       1953.       1955.       1967.    
        1975.       1985.       1992.       1993.       0.000       0.000       0.000       0.000       0.000    
  17    0.000       0.000       0.000       0.000       0.000       0.000       0.000       0.000       0.000       0.000    
        0.000       0.000       0.000       0.000       0.000       0.000       0.000       0.000       0.000       0.000    
        0.000       0.000       0.000       0.000       0.000       0.000       0.000       0.000       0.000       0.000    
        0.000       0.000       0.000       0.000       0.000       2091.       2085.       2069.       2062.       2053.    
        2041.       2038.       2035.       2031.       2018.       2007.       2005.       2005.       2012.       2012.    
        2008.       2002.       1996.       1993.       1991.       1989.       1988.       1986.       1983.       1980.    
        1966.       1965.       1970.       1968.       1961.       1950.       1948.       1945.       1946.       1952.    
        1960.       1976.       1984.       1986.       0.000       0.000       0.000       0.000       0.000    
  18    0.000       0.000       0.000       0.000       0.000       0.000       0.000       0.000       0.000       0.000    
        0.000       0.000       0.000       0.000       0.000       0.000       0.000       0.000       0.000       0.000    
        0.000       0.000       0.000       0.000       0.000       0.000       0.000       0.000       0.000       0.000    
        0.000       0.000       0.000       0.000       2097.       2090.       2077.       2065.       2057.       2050.    
        2041.       2038.       2033.       2029.       2016.       2009.       2000.       1988.       1998.       2003.    
        2000.       1994.       1991.       1987.       1985.       1985.       1985.       1984.       1982.       1976.    
        1969.       1956.       1961.       1958.       1950.       1943.       1943.       1940.       1940.       1939.    
        1949.       1964.       1974.       1979.       0.000       0.000       0.000       0.000       0.000    
  19    0.000       0.000       0.000       0.000       0.000       0.000       0.000       0.000       0.000       0.000    
        0.000       0.000       0.000       0.000       0.000       0.000       0.000       0.000       0.000       0.000    
        0.000       0.000       0.000       0.000       0.000       0.000       0.000       0.000       0.000       0.000    
        0.000       0.000       0.000       2103.       2091.       2093.       2078.       2067.       2064.       2055.    
        2046.       2040.       2034.       2030.       2022.       2016.       2000.       1975.       1982.       1991.    
        1992.       1986.       1985.       1982.       1980.       1981.       1983.       1983.       1981.       1972.    
        1964.       1954.       1946.       1946.       1943.       1938.       1940.       1939.       1939.       1939.    
        1941.       1953.       1967.       1979.       0.000       0.000       0.000       0.000       0.000    
  20    0.000       0.000       0.000       0.000       0.000       0.000       0.000       0.000       0.000       0.000    
        0.000       0.000       0.000       0.000       0.000       0.000       0.000       0.000       0.000       0.000    
        0.000       0.000       0.000       0.000       0.000       0.000       0.000       0.000       0.000       0.000    
        0.000       0.000       0.000       2102.       2110.       2111.       2093.       2082.       2070.       2062.    
        2055.       2042.       2032.       2029.       2021.       2015.       1996.       1970.       1972.       1978.    
        1982.       1978.       1978.       1976.       1976.       1977.       1981.       1980.       1975.       1967.    
        1960.       1952.       1943.       1937.       1938.       1936.       1939.       1942.       1943.       1945.    
        1943.       1950.       1966.       1993.       0.000       0.000       0.000       0.000       0.000    
  21    0.000       0.000       0.000       0.000       0.000       0.000       0.000       0.000       0.000       0.000    
        0.000       0.000       0.000       0.000       0.000       0.000       0.000       0.000       0.000       0.000    
        0.000       0.000       0.000       0.000       0.000       0.000       0.000       0.000       0.000       0.000    
        0.000       0.000       2113.       2122.       2126.       2113.       2093.       2077.       2062.       2051.    
        2041.       2031.       2022.       2014.       2007.       1999.       1983.       1960.       1957.       1964.    
        1970.       1968.       1968.       1968.       1971.       1974.       1978.       1975.       1968.       1963.    
        1958.       1950.       1943.       1934.       1934.       1935.       1944.       1948.       1956.       1956.    
        1953.       1953.       1965.       1980.       1990.       0.000       0.000       0.000       0.000    
  22    0.000       0.000       0.000       0.000       0.000       0.000       0.000       0.000       0.000       0.000    
        0.000       0.000       0.000       0.000       0.000       0.000       0.000       0.000       0.000       0.000    
        0.000       0.000       0.000       0.000       0.000       0.000       0.000       0.000       0.000       0.000    
        0.000       0.000       2131.       2128.       2115.       2098.       2082.       2066.       2054.       2045.    
        2034.       2021.       2009.       1997.       1983.       1975.       1958.       1948.       1943.       1951.    
        1960.       1960.       1959.       1963.       1968.       1971.       1974.       1970.       1964.       1958.    
        1954.       1949.       1944.       1934.       1931.       1934.       1941.       1948.       1953.       1958.    
        1963.       1960.       1960.       1970.       0.000       0.000       0.000       0.000       0.000    
  23    0.000       0.000       0.000       0.000       0.000       0.000       0.000       0.000       0.000       0.000    
        0.000       0.000       0.000       0.000       0.000       0.000       0.000       0.000       0.000       0.000    
        0.000       0.000       0.000       0.000       0.000       0.000       0.000       0.000       0.000       0.000    
        0.000       2140.       2126.       2113.       2099.       2084.       2068.       2056.       2043.       2033.    
        2027.       2019.       2006.       1994.       1975.       1956.       1945.       1938.       1932.       1943.    
        1950.       1950.       1952.       1957.       1965.       1968.       1972.       1971.       1962.       1954.    
        1952.       1948.       1944.       1933.       1928.       1930.       1936.       1945.       1953.       1960.    
        1969.       0.000       0.000       0.000       0.000       0.000       0.000       0.000       0.000    
  24    0.000       0.000       0.000       0.000       0.000       0.000       0.000       0.000       0.000       0.000    
        0.000       0.000       0.000       0.000       0.000       0.000       0.000       0.000       0.000       0.000    
        0.000       0.000       0.000       0.000       0.000       0.000       0.000       0.000       2136.       2141.    
        2134.       2123.       2109.       2095.       2082.       2065.       2052.       2039.       2028.       2019.    
        2012.       2002.       1994.       1988.       1976.       1958.       1942.       1930.       1923.       1933.    
        1937.       1937.       1942.       1956.       1960.       1964.       1968.       1969.       1960.       1954.    
        1949.       1948.       1945.       1931.       1928.       1928.       1930.       1939.       1950.       1960.    
        1970.       0.000       0.000       0.000       0.000       0.000       0.000       0.000       0.000    
  25    0.000       0.000       0.000       0.000       0.000       0.000       0.000       0.000       0.000       0.000    
        0.000       0.000       0.000       0.000       0.000       0.000       0.000       0.000       0.000       0.000    
        0.000       0.000       0.000       0.000       0.000       0.000       0.000       2148.       2123.       2112.    
        2112.       2101.       2090.       2079.       2064.       2051.       2038.       2022.       2009.       2002.    
        1996.       1989.       1980.       1975.       1970.       1960.       1941.       1928.       1918.       1921.    
        1925.       1926.       1932.       1947.       1954.       1957.       1961.       1964.       1958.       1948.    
        1945.       1945.       1945.       1940.       1932.       1932.       1928.       1931.       1942.       1951.    
        1962.       0.000       0.000       0.000       0.000       0.000       0.000       0.000       0.000    
  26    0.000       0.000       0.000       0.000       0.000       0.000       0.000       0.000       0.000       0.000    
        0.000       0.000       0.000       0.000       0.000       0.000       0.000       0.000       0.000       0.000    
        0.000       0.000       0.000       0.000       0.000       2157.       2142.       2120.       2095.       2086.    
        2085.       2079.       2070.       2060.       2047.       2034.       2018.       2002.       1991.       1986.    
        1981.       1971.       1966.       1962.       1960.       1955.       1944.       1925.       1916.       1909.    
        1910.       1915.       1923.       1938.       1947.       1951.       1954.       1957.       1953.       1944.    
        1940.       1942.       1941.       1941.       1940.       1933.       1932.       1925.       1932.       1941.    
        1948.       0.000       0.000       0.000       0.000       0.000       0.000       0.000       0.000    
  27    0.000       0.000       0.000       0.000       0.000       0.000       0.000       0.000       0.000       0.000    
        0.000       0.000       0.000       0.000       0.000       0.000       0.000       0.000       0.000       0.000    
        0.000       0.000       0.000       0.000       2156.       2135.       2118.       2100.       2076.       2058.    
        2062.       2059.       2053.       2042.       2030.       2013.       1995.       1984.       1978.       1971.    
        1963.       1957.       1951.       1951.       1950.       1949.       1941.       1929.       1920.       1909.    
        1902.       1906.       1916.       1928.       1943.       1945.       1947.       1948.       1944.       1939.    
        1935.       1935.       1936.       1940.       1940.       1937.       1935.       1924.       1926.       1931.    
        1935.       0.000       0.000       0.000       0.000       0.000       0.000       0.000       0.000    
  28    0.000       0.000       0.000       0.000       0.000       0.000       0.000       0.000       0.000       0.000    
        0.000       0.000       0.000       0.000       0.000       0.000       0.000       0.000       0.000       0.000    
        0.000       0.000       0.000       2156.       2133.       2112.       2096.       2081.       2062.       2049.    
        2046.       2045.       2037.       2025.       2012.       1996.       1980.       1971.       1963.       1955.    
        1947.       1943.       1939.       1940.       1941.       1941.       1937.       1931.       1922.       1911.    
        1897.       1900.       1908.       1921.       1932.       1937.       1939.       1939.       1936.       1934.    
        1929.       1929.       1929.       1936.       1940.       1940.       1938.       1922.       1919.       1925.    
        1928.       1928.       0.000       0.000       0.000       0.000       0.000       0.000       0.000    
  29    0.000       0.000       0.000       0.000       0.000       0.000       0.000       0.000       0.000       0.000    
        0.000       0.000       0.000       0.000       0.000       0.000       0.000       0.000       0.000       0.000    
        0.000       2160.       2152.       2133.       2108.       2090.       2077.       2064.       2053.       2042.    
        2034.       2030.       2021.       2010.       1998.       1982.       1969.       1959.       1950.       1943.    
        1936.       1930.       1928.       1931.       1931.       1932.       1933.       1928.       1922.       1913.    
        1901.       1894.       1902.       1914.       1923.       1926.       1931.       1930.       1929.       1929.    
        1922.       1922.       1923.       1932.       1940.       1939.       1935.       1925.       1912.       1920.    
        1923.       1923.       0.000       0.000       0.000       0.000       0.000       0.000       0.000    
  30    0.000       0.000       0.000       0.000       0.000       0.000       0.000       0.000       0.000       0.000    
        0.000       0.000       0.000       0.000       0.000       0.000       0.000       0.000       0.000       2195.    
        2166.       2146.       2128.       2106.       2085.       2071.       2060.       2051.       2041.       2033.    
        2029.       2018.       2008.       2000.       1988.       1974.       1959.       1947.       1940.       1931.    
        1925.       1920.       1918.       1921.       1922.       1923.       1926.       1922.       1917.       1912.    
        1899.       1889.       1897.       1911.       1914.       1915.       1919.       1919.       1924.       1925.    
        1919.       1917.       1918.       1927.       1936.       1933.       1928.       1924.       1906.       1910.    
        1919.       1919.       0.000       0.000       0.000       0.000       0.000       0.000       0.000    
  31    0.000       0.000       0.000       0.000       0.000       0.000       0.000       0.000       0.000       0.000    
        0.000       0.000       0.000       0.000       0.000       0.000       0.000       0.000       2201.       2180.    
        2154.       2126.       2102.       2085.       2068.       2057.       2049.       2039.       2030.       2023.    
        2018.       2011.       1997.       1991.       1983.       1968.       1951.       1940.       1931.       1925.    
        1919.       1914.       1912.       1912.       1914.       1916.       1917.       1917.       1912.       1908.    
        1895.       1884.       1892.       1904.       1905.       1905.       1907.       1911.       1918.       1918.    
        1912.       1908.       1915.       1922.       1929.       1927.       1921.       1919.       1908.       1894.    
        1905.       1912.       0.000       0.000       0.000       0.000       0.000       0.000       0.000    
  32    0.000       0.000       0.000       0.000       0.000       0.000       0.000       0.000       0.000       0.000    
        0.000       0.000       0.000       0.000       0.000       0.000       2219.       2201.       2180.       2165.    
        2140.       2112.       2086.       2063.       2053.       2045.       2037.       2029.       2021.       2014.    
        2008.       2003.       1992.       1985.       1977.       1964.       1948.       1934.       1927.       1920.    
        1913.       1908.       1906.       1905.       1906.       1908.       1910.       1910.       1909.       1903.    
        1892.       1882.       1882.       1888.       1891.       1894.       1896.       1903.       1908.       1908.    
        1902.       1898.       1908.       1916.       1922.       1921.       1915.       1913.       1905.       1890.    
        1898.       1908.       0.000       0.000       0.000       0.000       0.000       0.000       0.000    
  33    0.000       0.000       0.000       0.000       0.000       0.000       0.000       0.000       0.000       0.000    
        0.000       0.000       0.000       0.000       0.000       2246.       2209.       2184.       2167.       2153.    
        2131.       2105.       2075.       2051.       2042.       2036.       2027.       2019.       2013.       2006.    
        2000.       1996.       1991.       1983.       1969.       1956.       1943.       1932.       1921.       1922.    
        1920.       1914.       1907.       1902.       1900.       1900.       1900.       1902.       1903.       1898.    
        1892.       1882.       1876.       1876.       1879.       1880.       1884.       1890.       1893.       1892.    
        1889.       1890.       1898.       1907.       1913.       1912.       1911.       1910.       1895.       1888.    
        1900.       1905.       1906.       0.000       0.000       0.000       0.000       0.000       0.000    
  34    0.000       0.000       0.000       0.000       0.000       0.000       0.000       0.000       0.000       0.000    
        0.000       0.000       0.000       0.000       2264.       2235.       2200.       2174.       2160.       2148.    
        2126.       2100.       2075.       2052.       2034.       2026.       2016.       2011.       2005.       1999.    
        1994.       1990.       1982.       1975.       1966.       1947.       1937.       1929.       1932.       1932.    
        1933.       1927.       1916.       1905.       1899.       1894.       1890.       1884.       1891.       1890.    
        1886.       1883.       1876.       1872.       1870.       1869.       1871.       1874.       1877.       1879.    
        1874.       1882.       1888.       1896.       1899.       1896.       1891.       1891.       1871.       1880.    
        1890.       1899.       1899.       0.000       0.000       0.000       0.000       0.000       0.000    
  35    0.000       0.000       0.000       0.000       0.000       0.000       0.000       0.000       0.000       0.000    
        0.000       0.000       0.000       2262.       2246.       2229.       2201.       2164.       2153.       2141.    
        2117.       2097.       2076.       2055.       2036.       2024.       2015.       2007.       1998.       1993.    
        1987.       1982.       1974.       1964.       1950.       1945.       1937.       1937.       1949.       1957.    
        1957.       1948.       1924.       1909.       1902.       1897.       1897.       1889.       1877.       1873.    
        1872.       1871.       1872.       1875.       1867.       1864.       1865.       1864.       1865.       1865.    
        1866.       1874.       1882.       1884.       1885.       1886.       1877.       1871.       1858.       1865.    
        1876.       1888.       1897.       1898.       0.000       0.000       0.000       0.000       0.000    
  36    0.000       0.000       0.000       0.000       0.000       0.000       0.000       0.000       0.000       0.000    
        0.000       0.000       0.000       2245.       2233.       2221.       2195.       2163.       2142.       2128.    
        2112.       2092.       2075.       2057.       2043.       2030.       2017.       2007.       1998.       1990.    
        1981.       1974.       1967.       1960.       1957.       1948.       1940.       1945.       1959.       1962.    
        1962.       1951.       1934.       1919.       1906.       1904.       1902.       1893.       1881.       1874.    
        1871.       1867.       1863.       1865.       1859.       1858.       1858.       1857.       1858.       1858.    
        1861.       1854.       1853.       1853.       1870.       1872.       1864.       1860.       1852.       1853.    
        1860.       1875.       1889.       1883.       1878.       0.000       0.000       0.000       0.000    
  37    0.000       0.000       0.000       0.000       0.000       0.000       0.000       0.000       0.000       0.000    
        0.000       0.000       2250.       2237.       2226.       2212.       2192.       2159.       2141.       2123.    
        2102.       2085.       2067.       2053.       2043.       2030.       2017.       2008.       2003.       1995.    
        1984.       1977.       1972.       1968.       1965.       1955.       1944.       1948.       1958.       1963.    
        1960.       1947.       1934.       1923.       1910.       1911.       1907.       1892.       1883.       1878.    
        1874.       1869.       1866.       1863.       1861.       1858.       1856.       1855.       1857.       1855.    
        1856.       1859.       1861.       1860.       1857.       1839.       1849.       1845.       1844.       1845.    
        1849.       1857.       1864.       1853.       1868.       0.000       0.000       0.000       0.000    
  38    0.000       0.000       0.000       0.000       0.000       0.000       0.000       0.000       0.000       0.000    
        2277.       2256.       2244.       2230.       2219.       2207.       2189.       2161.       2148.       2125.    
        2109.       2095.       2076.       2055.       2049.       2038.       2024.       2013.       2008.       2000.    
        1990.       1986.       1982.       1976.       1973.       1963.       1950.       1950.       1956.       1964.    
        1957.       1941.       1932.       1924.       1918.       1920.       1915.       1900.       1889.       1882.    
        1877.       1872.       1869.       1867.       1865.       1861.       1858.       1857.       1857.       1856.    
        1850.       1846.       1846.       1846.       1846.       1843.       1843.       1840.       1838.       1836.    
        1835.       1838.       1842.       1844.       1831.       1815.       0.000       0.000       0.000    
  39    0.000       0.000       0.000       0.000       0.000       0.000       0.000       2343.       2316.       2296.    
        2272.       2255.       2237.       2225.       2216.       2204.       2187.       2170.       2154.       2140.    
        2116.       2099.       2079.       2064.       2060.       2049.       2030.       2020.       2014.       2003.    
        1998.       1994.       1986.       1980.       1979.       1969.       1955.       1954.       1958.       1967.    
        1963.       1944.       1937.       1928.       1929.       1933.       1930.       1918.       1898.       1887.    
        1882.       1876.       1873.       1872.       1870.       1868.       1865.       1862.       1859.       1857.    
        1856.       1860.       1868.       1874.       1866.       1836.       1847.       1838.       1833.       1804.    
        1805.       1808.       1811.       1814.       1814.       1813.       0.000       0.000       0.000    
  40    0.000       0.000       0.000       0.000       0.000       0.000       2367.       2345.       2316.       2293.    
        2271.       2251.       2238.       2227.       2216.       2206.       2194.       2179.       2164.       2144.    
        2121.       2101.       2085.       2081.       2080.       2060.       2045.       2033.       2021.       2010.    
        2007.       1999.       1993.       1988.       1984.       1974.       1957.       1961.       1970.       1973.    
        1972.       1963.       1946.       1935.       1937.       1947.       1942.       1927.       1906.       1897.    
        1888.       1883.       1883.       1880.       1881.       1882.       1879.       1882.       1877.       1863.    
        1861.       1870.       1884.       1889.       1891.       1873.       1874.       1856.       1849.       1844.    
        1840.       1836.       1833.       1831.       1829.       1815.       0.000       0.000       0.000    
  41    0.000       0.000       0.000       0.000       0.000       2401.       2385.       2350.       2326.       2301.    
        2276.       2256.       2240.       2229.       2223.       2215.       2205.       2192.       2166.       2147.    
        2131.       2111.       2098.       2094.       2090.       2077.       2056.       2042.       2025.       2021.    
        2012.       2004.       1997.       1992.       1987.       1976.       1963.       1973.       1982.       1983.    
        1979.       1973.       1958.       1945.       1943.       1959.       1954.       1937.       1922.       1905.    
        1899.       1895.       1897.       1896.       1895.       1902.       1895.       1900.       1885.       1872.    
        1868.       1879.       1890.       1897.       1900.       1900.       1887.       1860.       1847.       1839.    
        1834.       1829.       1826.       1823.       1823.       0.000       0.000       0.000       0.000    
  42    0.000       0.000       0.000       0.000       0.000       2418.       2406.       2374.       2346.       2315.    
        2282.       2261.       2249.       2239.       2240.       2235.       2228.       2208.       2177.       2155.    
        2137.       2123.       2105.       2091.       2083.       2071.       2053.       2042.       2035.       2026.    
        2016.       2006.       2002.       1997.       1990.       1977.       1973.       1989.       1994.       1991.    
        1988.       1979.       1966.       1958.       1953.       1955.       1965.       1959.       1946.       1918.    
        1914.       1912.       1915.       1917.       1917.       1917.       1913.       1903.       1888.       1878.    
        1876.       1887.       1898.       1904.       1906.       1902.       1888.       1867.       1852.       1844.    
        1837.       1831.       1829.       1828.       1827.       0.000       0.000       0.000       0.000    
  43    0.000       0.000       0.000       0.000       0.000       2434.       2422.       2383.       2352.       2321.    
        2291.       2270.       2265.       2262.       2258.       2252.       2246.       2226.       2199.       2165.    
        2147.       2132.       2114.       2105.       2090.       2079.       2070.       2061.       2046.       2030.    
        2020.       2015.       2008.       2001.       1993.       1979.       1982.       1998.       2003.       1999.    
        1998.       1997.       1977.       1966.       1961.       1963.       1974.       1974.       1965.       1943.    
        1940.       1936.       1938.       1939.       1936.       1929.       1919.       1905.       1896.       1883.    
        1882.       1892.       1903.       1911.       1911.       1905.       1891.       1872.       1856.       1847.    
        1840.       1836.       1832.       1836.       1834.       0.000       0.000       0.000       0.000    
  44    0.000       0.000       0.000       0.000       0.000       2437.       2419.       2386.       2350.       2318.    
        2294.       2281.       2273.       2266.       2257.       2251.       2246.       2239.       2216.       2189.    
        2161.       2133.       2137.       2125.       2110.       2096.       2083.       2072.       2055.       2035.    
        2027.       2022.       2013.       2005.       1994.       1982.       1989.       2008.       2016.       2010.    
        2004.       2005.       2004.       1988.       1973.       1974.       1985.       1985.       1978.       1973.    
        1968.       1963.       1962.       1960.       1951.       1943.       1928.       1906.       1900.       1890.    
        1889.       1894.       1904.       1914.       1914.       1906.       1894.       1879.       1861.       1855.    
        1846.       1840.       1837.       1846.       1844.       0.000       0.000       0.000       0.000    
  45    0.000       0.000       0.000       2438.       2430.       2429.       2412.       2382.       2338.       2312.    
        2290.       2276.       2265.       2253.       2237.       2229.       2228.       2223.       2213.       2191.    
        2157.       2163.       2150.       2134.       2121.       2107.       2090.       2075.       2059.       2041.    
        2033.       2025.       2018.       2009.       1996.       1985.       1998.       2019.       2031.       2025.    
        2014.       2005.       2002.       1997.       1986.       1982.       1995.       1995.       1996.       1997.    
        1994.       1990.       1990.       1984.       1967.       1954.       1933.       1914.       1906.       1899.    
        1893.       1896.       1904.       1912.       1912.       1905.       1895.       1882.       1872.       1863.    
        1848.       1845.       1849.       1860.       1862.       0.000       0.000       0.000       0.000    
  46    0.000       0.000       0.000       2439.       2423.       2416.       2403.       2367.       2330.       2304.    
        2280.       2263.       2249.       2235.       2224.       2219.       2212.       2204.       2189.       2189.    
        2192.       2181.       2161.       2150.       2135.       2114.       2092.       2077.       2064.       2050.    
        2037.       2028.       2020.       2008.       1997.       1989.       2002.       2022.       2036.       2031.    
        2022.       2011.       2003.       1996.       1988.       1986.       1997.       2003.       2010.       2015.    
        2017.       2021.       2017.       2003.       1988.       1965.       1941.       1921.       1914.       1909.    
        1900.       1905.       1908.       1915.       1912.       1902.       1893.       1882.       1873.       1861.    
        1854.       1851.       1854.       1863.       1875.       0.000       0.000       0.000       0.000    
  47    0.000       0.000       0.000       2440.       2422.       2409.       2389.       2359.       2323.       2294.    
        2272.       2249.       2239.       2232.       2223.       2218.       2217.       2215.       2212.       2211.    
        2203.       2191.       2176.       2160.       2141.       2116.       2096.       2084.       2072.       2059.    
        2044.       2031.       2022.       2013.       2004.       1992.       1998.       2014.       2026.       2026.    
        2022.       2019.       2009.       1998.       1989.       1988.       1996.       2005.       2016.       2026.    
        2035.       2043.       2038.       2022.       2002.       1978.       1948.       1930.       1918.       1910.    
        1907.       1912.       1915.       1917.       1912.       1899.       1892.       1882.       1873.       1862.    
        1861.       1857.       1856.       1866.       1877.       0.000       0.000       0.000       0.000    
  48    0.000       0.000       0.000       2445.       2428.       2407.       2378.       2348.       2313.       2289.    
        2260.       2245.       2239.       2233.       2230.       2227.       2233.       2237.       2236.       2234.    
        2216.       2198.       2180.       2161.       2140.       2118.       2100.       2091.       2081.       2068.    
        2052.       2039.       2028.       2022.       2022.       2017.       2001.       2004.       2014.       2020.    
        2023.       2027.       2024.       2013.       2000.       1990.       1994.       2010.       2023.       2036.    
        2052.       2060.       2051.       2039.       2022.       1994.       1963.       1941.       1923.       1914.    
        1917.       1920.       1923.       1920.       1909.       1901.       1892.       1886.       1878.       1871.    
        1865.       1862.       1865.       1870.       1882.       1894.       0.000       0.000       0.000    
  49    0.000       0.000       0.000       2447.       2431.       2410.       2368.       2338.       2309.       2286.    
        2264.       2248.       2247.       2244.       2239.       2244.       2248.       2251.       2253.       2236.    
        2214.       2196.       2179.       2158.       2143.       2124.       2113.       2098.       2086.       2072.    
        2058.       2048.       2036.       2033.       2032.       2031.       2017.       2004.       2008.       2016.    
        2026.       2033.       2036.       2031.       2018.       2000.       1992.       2006.       2022.       2044.    
        2064.       2080.       2071.       2054.       2036.       2009.       1979.       1953.       1935.       1923.    
        1925.       1929.       1931.       1928.       1913.       1904.       1897.       1890.       1884.       1876.    
        1873.       1869.       1874.       1881.       1888.       1896.       0.000       0.000       0.000    
  50    0.000       0.000       0.000       2455.       2438.       2402.       2365.       2334.       2299.       2284.    
        2275.       2258.       2262.       2260.       2260.       2265.       2264.       2256.       2241.       2223.    
        2206.       2190.       2175.       2157.       2144.       2131.       2120.       2109.       2094.       2078.    
        2063.       2054.       2045.       2040.       2037.       2033.       2021.       2010.       2008.       2017.    
        2028.       2037.       2044.       2045.       2039.       2015.       2000.       2001.       2016.       2041.    
        2069.       2089.       2089.       2073.       2050.       2027.       1995.       1971.       1951.       1936.    
        1931.       1937.       1945.       1942.       1925.       1911.       1902.       1895.       1888.       1884.    
        1880.       1876.       1883.       1889.       1895.       1902.       0.000       0.000       0.000    
  51    0.000       0.000       0.000       2455.       2431.       2390.       2360.       2328.       2291.       2280.    
        2270.       2275.       2286.       2284.       2289.       2289.       2273.       2246.       2227.       2213.    
        2201.       2190.       2177.       2164.       2155.       2139.       2123.       2111.       2100.       2084.    
        2070.       2059.       2050.       2044.       2038.       2032.       2020.       2012.       2011.       2017.    
        2028.       2039.       2047.       2052.       2051.       2033.       2008.       2000.       2005.       2032.    
        2062.       2088.       2105.       2090.       2064.       2039.       2011.       1985.       1964.       1954.    
        1940.       1944.       1953.       1956.       1943.       1922.       1907.       1901.       1895.       1897.    
        1892.       1881.       1888.       1897.       1903.       1909.       0.000       0.000       0.000    
  52    0.000       0.000       2433.       2448.       2419.       2378.       2348.       2321.       2294.       2280.    
        2286.       2294.       2303.       2309.       2311.       2305.       2291.       2265.       2247.       2226.    
        2208.       2196.       2186.       2173.       2162.       2147.       2128.       2113.       2100.       2089.    
        2077.       2063.       2053.       2045.       2037.       2029.       2020.       2012.       2013.       2017.    
        2027.       2038.       2049.       2055.       2060.       2052.       2029.       2008.       2004.       2019.    
        2052.       2084.       2104.       2101.       2081.       2054.       2021.       1997.       1977.       1964.    
        1954.       1955.       1960.       1962.       1957.       1936.       1917.       1909.       1910.       1910.    
        1906.       1891.       1893.       1907.       1914.       1920.       0.000       0.000       0.000    
  53    0.000       0.000       2439.       2447.       2409.       2374.       2345.       2312.       2298.       2292.    
        2302.       2309.       2321.       2327.       2328.       2325.       2315.       2295.       2267.       2246.    
        2227.       2208.       2196.       2185.       2176.       2160.       2138.       2119.       2101.       2088.    
        2077.       2066.       2055.       2046.       2037.       2028.       2022.       2015.       2015.       2021.    
        2031.       2045.       2055.       2066.       2072.       2071.       2050.       2024.       2017.       2019.    
        2047.       2076.       2102.       2108.       2089.       2060.       2033.       2007.       1986.       1973.    
        1968.       1966.       1966.       1966.       1959.       1942.       1926.       1919.       1920.       1922.    
        1919.       1908.       1900.       1916.       1933.       1936.       1945.       0.000       0.000    
  54    0.000       0.000       2442.       2439.       2396.       2369.       2352.       2335.       2312.       2312.    
        2316.       2323.       2335.       2340.       2342.       2348.       2343.       2316.       2292.       2271.    
        2244.       2224.       2210.       2198.       2189.       2172.       2148.       2128.       2108.       2089.    
        2075.       2066.       2054.       2045.       2036.       2028.       2024.       2018.       2020.       2030.    
        2044.       2056.       2073.       2085.       2096.       2096.       2071.       2044.       2035.       2027.    
        2042.       2073.       2099.       2111.       2098.       2067.       2042.       2020.       1997.       1983.    
        1978.       1979.       1976.       1973.       1969.       1951.       1936.       1929.       1933.       1936.    
        1937.       1925.       1912.       1920.       1936.       1944.       1949.       0.000       0.000    
  55    0.000       2449.       2441.       2440.       2416.       2391.       2366.       2348.       2324.       2330.    
        2328.       2339.       2347.       2352.       2356.       2362.       2364.       2336.       2311.       2290.    
        2263.       2240.       2222.       2208.       2196.       2180.       2158.       2137.       2115.       2092.    
        2077.       2065.       2054.       2044.       2036.       2029.       2026.       2021.       2027.       2040.    
        2055.       2072.       2090.       2106.       2118.       2119.       2088.       2063.       2049.       2042.    
        2048.       2070.       2095.       2115.       2108.       2077.       2052.       2036.       2017.       1995.    
        1991.       1989.       1987.       1981.       1974.       1961.       1950.       1941.       1945.       1950.    
        1951.       1949.       1924.       1931.       1941.       1948.       1955.       0.000       0.000    
  56    0.000       2444.       2430.       2428.       2418.       2408.       2387.       2358.       2349.       2339.    
        2336.       2352.       2361.       2362.       2367.       2375.       2376.       2354.       2333.       2311.    
        2288.       2261.       2237.       2220.       2203.       2189.       2168.       2146.       2121.       2095.    
        2082.       2069.       2055.       2044.       2038.       2033.       2029.       2026.       2033.       2047.    
        2065.       2084.       2105.       2122.       2137.       2137.       2102.       2081.       2065.       2058.    
        2053.       2066.       2094.       2117.       2115.       2085.       2065.       2047.       2029.       2011.    
        2001.       2002.       2001.       1991.       1979.       1969.       1959.       1953.       1955.       1963.    
        1968.       1963.       1935.       1940.       1952.       1958.       1959.       0.000       0.000    
  57    2473.       2434.       2404.       2417.       2420.       2415.       2390.       2391.       2364.       2350.    
        2365.       2376.       2377.       2375.       2381.       2388.       2389.       2374.       2357.       2333.    
        2306.       2284.       2252.       2233.       2213.       2196.       2178.       2156.       2126.       2104.    
        2086.       2070.       2057.       2046.       2039.       2034.       2030.       2031.       2038.       2050.    
        2065.       2085.       2109.       2124.       2139.       2146.       2125.       2097.       2081.       2072.    
        2064.       2072.       2094.       2121.       2128.       2098.       2078.       2060.       2044.       2029.    
        2015.       2020.       2018.       2005.       1989.       1979.       1971.       1963.       1964.       1971.    
        1978.       1973.       1946.       1953.       1958.       1962.       1964.       0.000       0.000    
  58    2476.       2432.       2408.       2418.       2408.       2400.       2413.       2409.       2375.       2377.    
        2387.       2396.       2397.       2388.       2393.       2399.       2403.       2390.       2368.       2344.    
        2318.       2296.       2272.       2246.       2226.       2206.       2188.       2163.       2135.       2110.    
        2093.       2075.       2061.       2050.       2041.       2036.       2033.       2033.       2039.       2048.    
        2061.       2080.       2099.       2116.       2137.       2149.       2154.       2120.       2101.       2089.    
        2081.       2081.       2098.       2125.       2137.       2113.       2093.       2076.       2060.       2043.    
        2032.       2036.       2033.       2021.       2005.       1992.       1982.       1976.       1976.       1981.    
        1978.       1970.       1957.       1964.       1966.       1967.       1969.       0.000       0.000    
  59    2483.       2446.       2419.       2425.       2414.       2406.       2431.       2429.       2417.       2403.    
        2409.       2416.       2413.       2407.       2407.       2409.       2417.       2402.       2379.       2355.    
        2325.       2305.       2283.       2256.       2235.       2216.       2194.       2168.       2140.       2118.    
        2097.       2081.       2064.       2053.       2043.       2038.       2034.       2035.       2041.       2048.    
        2061.       2078.       2098.       2116.       2135.       2153.       2160.       2146.       2119.       2107.    
        2098.       2095.       2102.       2129.       2143.       2128.       2108.       2094.       2079.       2062.    
        2049.       2053.       2047.       2035.       2019.       2002.       1996.       1988.       1990.       1989.    
        1979.       1970.       1968.       1972.       1971.       1973.       1979.       1986.       0.000    
  60    0.000       2467.       2455.       2458.       2448.       2433.       2458.       2461.       2456.       2443.    
        2443.       2436.       2424.       0.000       0.000       0.000       2426.       2412.       2389.       2362.    
        2336.       2311.       2287.       2271.       2255.       2229.       2202.       2173.       2150.       2125.    
        2100.       2086.       2070.       2056.       2047.       2040.       2036.       2037.       2041.       2049.    
        2060.       2079.       2098.       2115.       2138.       2161.       2171.       2163.       2142.       2121.    
        2112.       2109.       2108.       2128.       2145.       2139.       2124.       2111.       2094.       2081.    
        2071.       2077.       2071.       2053.       2035.       2018.       2011.       2005.       2003.       1994.    
        1981.       1974.       1976.       1979.       1978.       1982.       1990.       1995.       1998.    
  61    0.000       0.000       2484.       2504.       2485.       2482.       2481.       2477.       2486.       2488.    
        2471.       0.000       0.000       0.000       0.000       0.000       0.000       2419.       2392.       2367.    
        2341.       2313.       2291.       2273.       2265.       2233.       2206.       2180.       2156.       2128.    
        2108.       2094.       2073.       2060.       2051.       2042.       2039.       2038.       2042.       2049.    
        2061.       2077.       2097.       2117.       2139.       2165.       2186.       2182.       2159.       2139.    
        2124.       2118.       2119.       2127.       2145.       2149.       2141.       2128.       2111.       2098.    
        2088.       2094.       2094.       2072.       2053.       2037.       2025.       2016.       2010.       1995.    
        1986.       1980.       1984.       1986.       1986.       1993.       1999.       2002.       2005.    
  62    0.000       0.000       0.000       2509.       0.000       0.000       0.000       0.000       0.000       0.000    
        0.000       0.000       0.000       0.000       0.000       0.000       0.000       0.000       0.000       2370.    
        2344.       2316.       2290.       2275.       2260.       2232.       2211.       2186.       2159.       2134.    
        2113.       2096.       2078.       2064.       2054.       2046.       2042.       2040.       2042.       2050.    
        2061.       2076.       2097.       2115.       2136.       2163.       2189.       2196.       2184.       2156.    
        2140.       2130.       2129.       2131.       2143.       2157.       2157.       2146.       2132.       2118.    
        2102.       2112.       2109.       2093.       2072.       2055.       2041.       2025.       2010.       1999.    
        1990.       1989.       1992.       1991.       1995.       2000.       2006.       2010.       2013.    
  63    0.000       0.000       0.000       0.000       0.000       0.000       0.000       0.000       0.000       0.000    
        0.000       0.000       0.000       0.000       0.000       0.000       0.000       0.000       0.000       2372.    
        2347.       2312.       2290.       2274.       2260.       2235.       2214.       2190.       2166.       2136.    
        2116.       2101.       2086.       2067.       2056.       2049.       2045.       2042.       2045.       2051.    
        2060.       2075.       2094.       2112.       2135.       2155.       2181.       2204.       2201.       2181.    
        2154.       2144.       2139.       2138.       2148.       2161.       2172.       2166.       2155.       2147.    
        2135.       2133.       2130.       2112.       2094.       2070.       2050.       2034.       2018.       2003.    
        1995.       1996.       1997.       1998.       2001.       2007.       2012.       2017.       2021.    
  64    0.000       0.000       0.000       0.000       0.000       0.000       0.000       0.000       0.000       0.000    
        0.000       0.000       0.000       0.000       0.000       0.000       0.000       0.000       0.000       0.000    
        0.000       0.000       0.000       0.000       2262.       2242.       2220.       2197.       2174.       2142.    
        2123.       2104.       2091.       2076.       2059.       2051.       2047.       2045.       2046.       2050.    
        2060.       2072.       2091.       2109.       2130.       2153.       2177.       2199.       2211.       2203.    
        2180.       2164.       2159.       2151.       2153.       2164.       2177.       2185.       2181.       2170.    
        2161.       2157.       2148.       2134.       2113.       2084.       2056.       2038.       2022.       2008.    
        2002.       2002.       2003.       2003.       2006.       2011.       2018.       2025.       2030.    
  65    0.000       0.000       0.000       0.000       0.000       0.000       0.000       0.000       0.000       0.000    
        0.000       0.000       0.000       0.000       0.000       0.000       0.000       0.000       0.000       0.000    
        0.000       0.000       0.000       0.000       0.000       0.000       0.000       0.000       0.000       0.000    
        0.000       0.000       0.000       2080.       2067.       2054.       2049.       2047.       2047.       2051.    
        2058.       2071.       2086.       2103.       2125.       0.000       0.000       0.000       0.000       2214.    
        2203.       2193.       2188.       2172.       2160.       2165.       2178.       2193.       2199.       2191.    
        2184.       2175.       2161.       2145.       2123.       2094.       2064.       2040.       2027.       2014.    
        2011.       2009.       2010.       2010.       2010.       2016.       2022.       2029.       2034.    
  66    0.000       0.000       0.000       0.000       0.000       0.000       0.000       0.000       0.000       0.000    
        0.000       0.000       0.000       0.000       0.000       0.000       0.000       0.000       0.000       0.000    
        0.000       0.000       0.000       0.000       0.000       0.000       0.000       0.000       0.000       0.000    
        0.000       0.000       0.000       0.000       0.000       2059.       2053.       0.000       0.000       0.000    
        0.000       0.000       0.000       0.000       0.000       0.000       0.000       0.000       0.000       0.000    
        2211.       2208.       2207.       2190.       2175.       2171.       2181.       2198.       2212.       2209.    
        2201.       2187.       2172.       2151.       2129.       2098.       2067.       2046.       2034.       2026.    
        2024.       2019.       2018.       2015.       2013.       2017.       2024.       2030.       2038.    
  67    0.000       0.000       0.000       0.000       0.000       0.000       0.000       0.000       0.000       0.000    
        0.000       0.000       0.000       0.000       0.000       0.000       0.000       0.000       0.000       0.000    
        0.000       0.000       0.000       0.000       0.000       0.000       0.000       0.000       0.000       0.000    
        0.000       0.000       0.000       0.000       0.000       0.000       0.000       0.000       0.000       0.000    
        0.000       0.000       0.000       0.000       0.000       0.000       0.000       0.000       0.000       0.000    
        0.000       0.000       2215.       2205.       2187.       2179.       2184.       2198.       2217.       2222.    
        2213.       2200.       2175.       2155.       2133.       2103.       2076.       2051.       2042.       2037.    
        2029.       0.000       0.000       0.000       0.000       0.000       0.000       0.000       0.000    
  68    0.000       0.000       0.000       0.000       0.000       0.000       0.000       0.000       0.000       0.000    
        0.000       0.000       0.000       0.000       0.000       0.000       0.000       0.000       0.000       0.000    
        0.000       0.000       0.000       0.000       0.000       0.000       0.000       0.000       0.000       0.000    
        0.000       0.000       0.000       0.000       0.000       0.000       0.000       0.000       0.000       0.000    
        0.000       0.000       0.000       0.000       0.000       0.000       0.000       0.000       0.000       0.000    
        0.000       0.000       0.000       2213.       2197.       2187.       2184.       2194.       2210.       2230.    
        2219.       2205.       2183.       2161.       2139.       2109.       2083.       2062.       0.000       0.000    
        0.000       0.000       0.000       0.000       0.000       0.000       0.000       0.000       0.000    
  69    0.000       0.000       0.000       0.000       0.000       0.000       0.000       0.000       0.000       0.000    
        0.000       0.000       0.000       0.000       0.000       0.000       0.000       0.000       0.000       0.000    
        0.000       0.000       0.000       0.000       0.000       0.000       0.000       0.000       0.000       0.000    
        0.000       0.000       0.000       0.000       0.000       0.000       0.000       0.000       0.000       0.000    
        0.000       0.000       0.000       0.000       0.000       0.000       0.000       0.000       0.000       0.000    
        0.000       0.000       0.000       0.000       0.000       0.000       0.000       0.000       0.000       0.000    
        2232.       2214.       2193.       2171.       2148.       2120.       2095.       0.000       0.000       0.000    
        0.000       0.000       0.000       0.000       0.000       0.000       0.000       0.000       0.000    
  70    0.000       0.000       0.000       0.000       0.000       0.000       0.000       0.000       0.000       0.000    
        0.000       0.000       0.000       0.000       0.000       0.000       0.000       0.000       0.000       0.000    
        0.000       0.000       0.000       0.000       0.000       0.000       0.000       0.000       0.000       0.000    
        0.000       0.000       0.000       0.000       0.000       0.000       0.000       0.000       0.000       0.000    
        0.000       0.000       0.000       0.000       0.000       0.000       0.000       0.000       0.000       0.000    
        0.000       0.000       0.000       0.000       0.000       0.000       0.000       0.000       0.000       0.000    
        0.000       2228.       2207.       2183.       2161.       2130.       0.000       0.000       0.000       0.000    
        0.000       0.000       0.000       0.000       0.000       0.000       0.000       0.000       0.000    
  71    0.000       0.000       0.000       0.000       0.000       0.000       0.000       0.000       0.000       0.000    
        0.000       0.000       0.000       0.000       0.000       0.000       0.000       0.000       0.000       0.000    
        0.000       0.000       0.000       0.000       0.000       0.000       0.000       0.000       0.000       0.000    
        0.000       0.000       0.000       0.000       0.000       0.000       0.000       0.000       0.000       0.000    
        0.000       0.000       0.000       0.000       0.000       0.000       0.000       0.000       0.000       0.000    
        0.000       0.000       0.000       0.000       0.000       0.000       0.000       0.000       0.000       0.000    
        0.000       0.000       2222.       2196.       0.000       0.000       0.000       0.000       0.000       0.000    
        0.000       0.000       0.000       0.000       0.000       0.000       0.000       0.000       0.000    


 STRESS PERIOD     LENGTH       TIME STEPS     MULTIPLIER FOR DELT    SS FLAG
 ----------------------------------------------------------------------------
        1         1.000000          1                    1.000         SS
        2         31.00000         31                    1.000         TR
        3         30.00000         30                    1.000         TR
        4         31.00000         31                    1.000         TR
        5         31.00000         31                    1.000         TR
        6         28.00000         28                    1.000         TR
        7         31.00000         31                    1.000         TR
        8         30.00000         30                    1.000         TR
        9         31.00000         31                    1.000         TR
       10         30.00000         30                    1.000         TR
       11         31.00000         31                    1.000         TR
       12         31.00000         31                    1.000         TR
       13         30.00000         30                    1.000         TR
       14         31.00000         31                    1.000         TR
       15         30.00000         30                    1.000         TR
       16         31.00000         31                    1.000         TR
       17         31.00000         31                    1.000         TR
       18         29.00000         29                    1.000         TR
       19         31.00000         31                    1.000         TR
       20         30.00000         30                    1.000         TR
       21         31.00000         31                    1.000         TR
       22         30.00000         30                    1.000         TR
       23         31.00000         31                    1.000         TR
       24         31.00000         31                    1.000         TR
       25         30.00000         30                    1.000         TR
       26         31.00000         31                    1.000         TR
       27         30.00000         30                    1.000         TR
       28         31.00000         31                    1.000         TR
       29         31.00000         31                    1.000         TR
       30         28.00000         28                    1.000         TR
       31         31.00000         31                    1.000         TR
       32         30.00000         30                    1.000         TR
       33         31.00000         31                    1.000         TR
       34         30.00000         30                    1.000         TR
       35         31.00000         31                    1.000         TR
       36         31.00000         31                    1.000         TR
       37         30.00000         30                    1.000         TR
       38         31.00000         31                    1.000         TR
       39         30.00000         30                    1.000         TR
       40         31.00000         31                    1.000         TR
       41         31.00000         31                    1.000         TR
       42         28.00000         28                    1.000         TR
       43         31.00000         31                    1.000         TR
       44         30.00000         30                    1.000         TR
       45         31.00000         31                    1.000         TR
       46         30.00000         30                    1.000         TR
       47         31.00000         31                    1.000         TR
       48         31.00000         31                    1.000         TR
       49         30.00000         30                    1.000         TR
       50         31.00000         31                    1.000         TR
       51         30.00000         30                    1.000         TR
       52         31.00000         31                    1.000         TR
       53         31.00000         31                    1.000         TR
       54         28.00000         28                    1.000         TR
       55         31.00000         31                    1.000         TR
       56         30.00000         30                    1.000         TR
       57         31.00000         31                    1.000         TR
       58         30.00000         30                    1.000         TR
       59         31.00000         31                    1.000         TR
       60         31.00000         31                    1.000         TR
       61         30.00000         30                    1.000         TR
       62         31.00000         31                    1.000         TR
       63         30.00000         30                    1.000         TR
       64         31.00000         31                    1.000         TR
       65         31.00000         31                    1.000         TR
       66         29.00000         29                    1.000         TR
       67         31.00000         31                    1.000         TR
       68         30.00000         30                    1.000         TR
       69         31.00000         31                    1.000         TR
       70         30.00000         30                    1.000         TR
       71         31.00000         31                    1.000         TR
       72         31.00000         31                    1.000         TR
       73         30.00000         30                    1.000         TR
       74         31.00000         31                    1.000         TR
       75         30.00000         30                    1.000         TR
       76         31.00000         31                    1.000         TR
       77         31.00000         31                    1.000         TR
       78         28.00000         28                    1.000         TR
       79         31.00000         31                    1.000         TR
       80         30.00000         30                    1.000         TR
       81         31.00000         31                    1.000         TR
       82         30.00000         30                    1.000         TR
       83         31.00000         31                    1.000         TR
       84         31.00000         31                    1.000         TR
       85         30.00000         30                    1.000         TR
       86         31.00000         31                    1.000         TR
       87         30.00000         30                    1.000         TR
       88         31.00000         31                    1.000         TR
       89         31.00000         31                    1.000         TR
       90         28.00000         28                    1.000         TR
       91         31.00000         31                    1.000         TR
       92         30.00000         30                    1.000         TR
       93         31.00000         31                    1.000         TR
       94         30.00000         30                    1.000         TR
       95         31.00000         31                    1.000         TR
       96         31.00000         31                    1.000         TR
       97         30.00000         30                    1.000         TR
       98         31.00000         31                    1.000         TR
       99         30.00000         30                    1.000         TR
      100         31.00000         31                    1.000         TR
      101         31.00000         31                    1.000         TR
      102         28.00000         28                    1.000         TR
      103         31.00000         31                    1.000         TR
      104         30.00000         30                    1.000         TR
      105         31.00000         31                    1.000         TR
      106         30.00000         30                    1.000         TR
      107         31.00000         31                    1.000         TR
      108         31.00000         31                    1.000         TR
      109         30.00000         30                    1.000         TR
      110         31.00000         31                    1.000         TR
      111         30.00000         30                    1.000         TR
      112         31.00000         31                    1.000         TR
      113         31.00000         31                    1.000         TR
      114         29.00000         29                    1.000         TR
      115         31.00000         31                    1.000         TR
      116         30.00000         30                    1.000         TR
      117         31.00000         31                    1.000         TR
      118         30.00000         30                    1.000         TR
      119         31.00000         31                    1.000         TR
      120         31.00000         31                    1.000         TR
      121         30.00000         30                    1.000         TR
      122         31.00000         31                    1.000         TR
      123         30.00000         30                    1.000         TR
      124         31.00000         31                    1.000         TR
      125         31.00000         31                    1.000         TR
      126         28.00000         28                    1.000         TR
      127         31.00000         31                    1.000         TR
      128         30.00000         30                    1.000         TR
      129         31.00000         31                    1.000         TR
      130         30.00000         30                    1.000         TR
      131         31.00000         31                    1.000         TR
      132         31.00000         31                    1.000         TR
      133         30.00000         30                    1.000         TR
      134         31.00000         31                    1.000         TR
      135         30.00000         30                    1.000         TR
      136         31.00000         31                    1.000         TR
      137         31.00000         31                    1.000         TR
      138         28.00000         28                    1.000         TR
      139         31.00000         31                    1.000         TR
      140         30.00000         30                    1.000         TR
      141         31.00000         31                    1.000         TR
      142         30.00000         30                    1.000         TR
      143         31.00000         31                    1.000         TR
      144         31.00000         31                    1.000         TR
      145         30.00000         30                    1.000         TR
      146         31.00000         31                    1.000         TR
      147         30.00000         30                    1.000         TR
      148         31.00000         31                    1.000         TR
      149         31.00000         31                    1.000         TR
      150         28.00000         28                    1.000         TR
      151         31.00000         31                    1.000         TR
      152         30.00000         30                    1.000         TR
      153         31.00000         31                    1.000         TR
      154         30.00000         30                    1.000         TR
      155         31.00000         31                    1.000         TR
      156         31.00000         31                    1.000         TR
      157         30.00000         30                    1.000         TR
      158         31.00000         31                    1.000         TR
      159         30.00000         30                    1.000         TR
      160         31.00000         31                    1.000         TR
      161         31.00000         31                    1.000         TR
      162         29.00000         29                    1.000         TR
      163         31.00000         31                    1.000         TR
      164         30.00000         30                    1.000         TR
      165         31.00000         31                    1.000         TR
      166         30.00000         30                    1.000         TR
      167         31.00000         31                    1.000         TR
      168         31.00000         31                    1.000         TR
      169         30.00000         30                    1.000         TR
      170         31.00000         31                    1.000         TR
      171         30.00000         30                    1.000         TR
      172         31.00000         31                    1.000         TR
      173         31.00000         31                    1.000         TR
      174         28.00000         28                    1.000         TR
      175         31.00000         31                    1.000         TR
      176         30.00000         30                    1.000         TR
      177         31.00000         31                    1.000         TR
      178         30.00000         30                    1.000         TR
      179         31.00000         31                    1.000         TR
      180         31.00000         31                    1.000         TR
      181         30.00000         30                    1.000         TR
      182         31.00000         31                    1.000         TR
      183         30.00000         30                    1.000         TR
      184         31.00000         31                    1.000         TR
      185         31.00000         31                    1.000         TR
      186         28.00000         28                    1.000         TR
      187         31.00000         31                    1.000         TR
      188         30.00000         30                    1.000         TR
      189         31.00000         31                    1.000         TR
      190         30.00000         30                    1.000         TR
      191         31.00000         31                    1.000         TR
      192         31.00000         31                    1.000         TR
      193         30.00000         30                    1.000         TR
      194         31.00000         31                    1.000         TR
      195         30.00000         30                    1.000         TR
      196         31.00000         31                    1.000         TR
      197         31.00000         31                    1.000         TR
      198         28.00000         28                    1.000         TR
      199         31.00000         31                    1.000         TR
      200         30.00000         30                    1.000         TR
      201         31.00000         31                    1.000         TR
      202         30.00000         30                    1.000         TR
      203         31.00000         31                    1.000         TR
      204         31.00000         31                    1.000         TR
      205         30.00000         30                    1.000         TR
      206         31.00000         31                    1.000         TR
      207         30.00000         30                    1.000         TR
      208         31.00000         31                    1.000         TR
      209         31.00000         31                    1.000         TR
      210         29.00000         29                    1.000         TR
      211         31.00000         31                    1.000         TR
      212         30.00000         30                    1.000         TR
      213         31.00000         31                    1.000         TR
      214         30.00000         30                    1.000         TR
      215         31.00000         31                    1.000         TR
      216         31.00000         31                    1.000         TR
      217         30.00000         30                    1.000         TR
      218         31.00000         31                    1.000         TR
      219         30.00000         30                    1.000         TR
      220         31.00000         31                    1.000         TR
      221         31.00000         31                    1.000         TR
      222         28.00000         28                    1.000         TR
      223         31.00000         31                    1.000         TR

 COMBINED STEADY-STATE AND TRANSIENT SIMULATION




 #Sagehen-GRID Simulation -- Example problem for GSFLOW                          
 THE FREE FORMAT OPTION HAS BEEN SELECTED



                     BOUNDARY ARRAY FOR LAYER   1
 READING ON UNIT    8 WITH FORMAT: (FREE)              

         1    2    3    4    5    6    7    8    9   10   11   12   13   14   15   16   17   18   19   20   21   22   23   24   25
        26   27   28   29   30   31   32   33   34   35   36   37   38   39   40   41   42   43   44   45   46   47   48   49   50
        51   52   53   54   55   56   57   58   59   60   61   62   63   64   65   66   67   68   69   70   71   72   73   74   75
        76   77   78   79
 .................................................................................................................................
   1     0    0    0    0    0    0    0    0    0    0    0    0    0    0    0    0    0    0    0    0    0    0    0    0    0
         0    0    0    0    0    0    0    0    0    0    0    0    0    0    0    0    0    0    0    0    0    0    0    0    0
         0    1    1    0    0    0    0    0    0    0    0    0    0    0    0    0    0    0    0    0    0    0    0    0    0
         0    0    0    0
   2     0    0    0    0    0    0    0    0    0    0    0    0    0    0    0    0    0    0    0    0    0    0    0    0    0
         0    0    0    0    0    0    0    0    0    0    0    0    0    0    0    0    0    0    0    0    0    0    0    0    0
         0    1    1    1    0    0    0    0    0    0    0    0    0    0    0    0    0    0    0    0    0    0    0    0    0
         0    0    0    0
   3     0    0    0    0    0    0    0    0    0    0    0    0    0    0    0    0    0    0    0    0    0    0    0    0    0
         0    0    0    0    0    0    0    0    0    0    0    0    0    0    0    0    0    0    0    0    0    0    0    0    0
         0    1    1    1    0    0    0    0    0    0    0    0    0    0    0    0    0    0    0    0    0    0    0    0    0
         0    0    0    0
   4     0    0    0    0    0    0    0    0    0    0    0    0    0    0    0    0    0    0    0    0    0    0    0    0    0
         0    0    0    0    0    0    0    0    0    0    0    0    0    0    0    0    0    0    0    0    0    0    0    0    0
         0    1    1    1    1    0    0    0    0    0    0    0    0    0    0    0    0    0    0    0    0    0    0    0    0
         0    0    0    0
   5     0    0    0    0    0    0    0    0    0    0    0    0    0    0    0    0    0    0    0    0    0    0    0    0    0
         0    0    0    0    0    0    0    0    0    0    0    0    0    0    0    0    0    0    0    0    0    0    0    0    0
         0    1    1    1    1    1    1    0    0    0    0    0    0    0    0    0    0    0    0    0    0    0    0    0    0
         0    0    0    0
   6     0    0    0    0    0    0    0    0    0    0    0    0    0    0    0    0    0    0    0    0    0    0    0    0    0
         0    0    0    0    0    0    0    0    0    0    0    0    0    0    0    0    0    0    0    0    0    0    0    0    0
         0    1    1    1    1    1    1    1    1    0    0    0    0    1    1    0    0    0    0    0    0    0    0    0    0
         0    0    0    0
   7     0    0    0    0    0    0    0    0    0    0    0    0    0    0    0    0    0    0    0    0    0    0    0    0    0
         0    0    0    0    0    0    0    0    0    0    0    0    0    0    0    0    0    0    0    0    0    0    0    0    0
         0    1    1    1    1    1    1    1    1    1    1    1    1    1    1    1    0    0    0    0    0    0    0    0    0
         0    0    0    0
   8     0    0    0    0    0    0    0    0    0    0    0    0    0    0    0    0    0    0    0    0    0    0    0    0    0
         0    0    0    0    0    0    0    0    0    0    0    0    0    0    0    0    0    0    0    0    0    0    0    0    0
         0    1    1    1    1    1    1    1    1    1    1    1    1    1    1    1    1    1    0    0    0    0    0    0    0
         0    0    0    0
   9     0    0    0    0    0    0    0    0    0    0    0    0    0    0    0    0    0    0    0    0    0    0    0    0    0
         0    0    0    0    0    0    0    0    0    0    0    0    0    0    0    0    0    0    0    0    0    0    0    0    0
         1    1    1    1    1    1    1    1    1    1    1    1    1    1    1    1    1    1    1    0    0    0    0    0    0
         0    0    0    0
  10     0    0    0    0    0    0    0    0    0    0    0    0    0    0    0    0    0    0    0    0    0    0    0    0    0
         0    0    0    0    0    0    0    0    0    0    0    0    0    0    0    0    0    0    0    0    0    0    0    0    1
         1    1    1    1    1    1    1    1    1    1    1    1    1    1    1    1    1    1    1    1    0    0    0    0    0
         0    0    0    0
  11     0    0    0    0    0    0    0    0    0    0    0    0    0    0    0    0    0    0    0    0    0    0    0    0    0
         0    0    0    0    0    0    0    0    0    0    0    0    0    0    0    0    0    0    0    0    0    0    0    1    1
         1    1    1    1    1    1    1    1    1    1    1    1    1    1    1    1    1    1    1    1    1    0    0    0    0
         0    0    0    0
  12     0    0    0    0    0    0    0    0    0    0    0    0    0    0    0    0    0    0    0    0    0    0    0    0    0
         0    0    0    0    0    0    0    0    0    0    0    0    0    0    0    0    1    1    0    0    0    0    1    1    1
         1    1    1    1    1    1    1    1    1    1    1    1    1    1    1    1    1    1    1    1    1    0    0    0    0
         0    0    0    0
  13     0    0    0    0    0    0    0    0    0    0    0    0    0    0    0    0    0    0    0    0    0    0    0    0    0
         0    0    0    0    0    0    0    0    0    0    0    0    0    1    1    1    1    1    1    1    1    1    1    1    1
         1    1    1    1    1    1    1    1    1    1    1    1    1    1    1    1    1    1    1    1    1    1    0    0    0
         0    0    0    0
  14     0    0    0    0    0    0    0    0    0    0    0    0    0    0    0    0    0    0    0    0    0    0    0    0    0
         0    0    0    0    0    0    0    0    0    0    0    0    0    1    1    1    1    1    1    1    1    1    1    1    1
         1    1    1    1    1    1    1    1    1    1    1    1    1    1    1    1    1    1    1    1    1    1    1    0    0
         0    0    0    0
  15     0    0    0    0    0    0    0    0    0    0    0    0    0    0    0    0    0    0    0    0    0    0    0    0    0
         0    0    0    0    0    0    0    0    0    0    0    0    1    1    1    1    1    1    1    1    1    1    1    1    1
         1    1    1    1    1    1    1    1    1    1    1    1    1    1    1    1    1    1    1    1    1    1    1    0    0
         0    0    0    0
  16     0    0    0    0    0    0    0    0    0    0    0    0    0    0    0    0    0    0    0    0    0    0    0    0    0
         0    0    0    0    0    0    0    0    0    0    0    1    1    1    1    1    1    1    1    1    1    1    1    1    1
         1    1    1    1    1    1    1    1    1    1    1    1    1    1    1    1    1    1    1    1    1    1    1    1    0
         0    0    0    0
  17     0    0    0    0    0    0    0    0    0    0    0    0    0    0    0    0    0    0    0    0    0    0    0    0    0
         0    0    0    0    0    0    0    0    0    0    1    1    1    1    1    1    1    1    1    1    1    1    1    1    1
         1    1    1    1    1    1    1    1    1    1    1    1    1    1    1    1    1    1    1    1    1    1    1    1    0
         0    0    0    0
  18     0    0    0    0    0    0    0    0    0    0    0    0    0    0    0    0    0    0    0    0    0    0    0    0    0
         0    0    0    0    0    0    0    0    0    1    1    1    1    1    1    1    1    1    1    1    1    1    1    1    1
         1    1    1    1    1    1    1    1    1    1    1    1    1    1    1    1    1    1    1    1    1    1    1    1    0
         0    0    0    0
  19     0    0    0    0    0    0    0    0    0    0    0    0    0    0    0    0    0    0    0    0    0    0    0    0    0
         0    0    0    0    0    0    0    0    1    1    1    1    1    1    1    1    1    1    1    1    1    1    1    1    1
         1    1    1    1    1    1    1    1    1    1    1    1    1    1    1    1    1    1    1    1    1    1    1    1    0
         0    0    0    0
  20     0    0    0    0    0    0    0    0    0    0    0    0    0    0    0    0    0    0    0    0    0    0    0    0    0
         0    0    0    0    0    0    0    0    1    1    1    1    1    1    1    1    1    1    1    1    1    1    1    1    1
         1    1    1    1    1    1    1    1    1    1    1    1    1    1    1    1    1    1    1    1    1    1    1    1    0
         0    0    0    0
  21     0    0    0    0    0    0    0    0    0    0    0    0    0    0    0    0    0    0    0    0    0    0    0    0    0
         0    0    0    0    0    0    0    1    1    1    1    1    1    1    1    1    1    1    1    1    1    1    1    1    1
         1    1    1    1    1    1    1    1    1    1    1    1    1    1    1    1    1    1    1    1    1    1    1    1    1
         0    0    0    0
  22     0    0    0    0    0    0    0    0    0    0    0    0    0    0    0    0    0    0    0    0    0    0    0    0    0
         0    0    0    0    0    0    0    1    1    1    1    1    1    1    1    1    1    1    1    1    1    1    1    1    1
         1    1    1    1    1    1    1    1    1    1    1    1    1    1    1    1    1    1    1    1    1    1    1    1    0
         0    0    0    0
  23     0    0    0    0    0    0    0    0    0    0    0    0    0    0    0    0    0    0    0    0    0    0    0    0    0
         0    0    0    0    0    0    1    1    1    1    1    1    1    1    1    1    1    1    1    1    1    1    1    1    1
         1    1    1    1    1    1    1    1    1    1    1    1    1    1    1    1    1    1    1    1    1    0    0    0    0
         0    0    0    0
  24     0    0    0    0    0    0    0    0    0    0    0    0    0    0    0    0    0    0    0    0    0    0    0    0    0
         0    0    0    1    1    1    1    1    1    1    1    1    1    1    1    1    1    1    1    1    1    1    1    1    1
         1    1    1    1    1    1    1    1    1    1    1    1    1    1    1    1    1    1    1    1    1    0    0    0    0
         0    0    0    0
  25     0    0    0    0    0    0    0    0    0    0    0    0    0    0    0    0    0    0    0    0    0    0    0    0    0
         0    0    1    1    1    1    1    1    1    1    1    1    1    1    1    1    1    1    1    1    1    1    1    1    1
         1    1    1    1    1    1    1    1    1    1    1    1    1    1    1    1    1    1    1    1    1    0    0    0    0
         0    0    0    0
  26     0    0    0    0    0    0    0    0    0    0    0    0    0    0    0    0    0    0    0    0    0    0    0    0    0
         1    1    1    1    1    1    1    1    1    1    1    1    1    1    1    1    1    1    1    1    1    1    1    1    1
         1    1    1    1    1    1    1    1    1    1    1    1    1    1    1    1    1    1    1    1    1    0    0    0    0
         0    0    0    0
  27     0    0    0    0    0    0    0    0    0    0    0    0    0    0    0    0    0    0    0    0    0    0    0    0    1
         1    1    1    1    1    1    1    1    1    1    1    1    1    1    1    1    1    1    1    1    1    1    1    1    1
         1    1    1    1    1    1    1    1    1    1    1    1    1    1    1    1    1    1    1    1    1    0    0    0    0
         0    0    0    0
  28     0    0    0    0    0    0    0    0    0    0    0    0    0    0    0    0    0    0    0    0    0    0    0    1    1
         1    1    1    1    1    1    1    1    1    1    1    1    1    1    1    1    1    1    1    1    1    1    1    1    1
         1    1    1    1    1    1    1    1    1    1    1    1    1    1    1    1    1    1    1    1    1    1    0    0    0
         0    0    0    0
  29     0    0    0    0    0    0    0    0    0    0    0    0    0    0    0    0    0    0    0    0    0    1    1    1    1
         1    1    1    1    1    1    1    1    1    1    1    1    1    1    1    1    1    1    1    1    1    1    1    1    1
         1    1    1    1    1    1    1    1    1    1    1    1    1    1    1    1    1    1    1    1    1    1    0    0    0
         0    0    0    0
  30     0    0    0    0    0    0    0    0    0    0    0    0    0    0    0    0    0    0    0    1    1    1    1    1    1
         1    1    1    1    1    1    1    1    1    1    1    1    1    1    1    1    1    1    1    1    1    1    1    1    1
         1    1    1    1    1    1    1    1    1    1    1    1    1    1    1    1    1    1    1    1    1    1    0    0    0
         0    0    0    0
  31     0    0    0    0    0    0    0    0    0    0    0    0    0    0    0    0    0    0    1    1    1    1    1    1    1
         1    1    1    1    1    1    1    1    1    1    1    1    1    1    1    1    1    1    1    1    1    1    1    1    1
         1    1    1    1    1    1    1    1    1    1    1    1    1    1    1    1    1    1    1    1    1    1    0    0    0
         0    0    0    0
  32     0    0    0    0    0    0    0    0    0    0    0    0    0    0    0    0    1    1    1    1    1    1    1    1    1
         1    1    1    1    1    1    1    1    1    1    1    1    1    1    1    1    1    1    1    1    1    1    1    1    1
         1    1    1    1    1    1    1    1    1    1    1    1    1    1    1    1    1    1    1    1    1    1    0    0    0
         0    0    0    0
  33     0    0    0    0    0    0    0    0    0    0    0    0    0    0    0    1    1    1    1    1    1    1    1    1    1
         1    1    1    1    1    1    1    1    1    1    1    1    1    1    1    1    1    1    1    1    1    1    1    1    1
         1    1    1    1    1    1    1    1    1    1    1    1    1    1    1    1    1    1    1    1    1    1    1    0    0
         0    0    0    0
  34     0    0    0    0    0    0    0    0    0    0    0    0    0    0    1    1    1    1    1    1    1    1    1    1    1
         1    1    1    1    1    1    1    1    1    1    1    1    1    1    1    1    1    1    1    1    1    1    1    1    1
         1    1    1    1    1    1    1    1    1    1    1    1    1    1    1    1    1    1    1    1    1    1    1    0    0
         0    0    0    0
  35     0    0    0    0    0    0    0    0    0    0    0    0    0    1    1    1    1    1    1    1    1    1    1    1    1
         1    1    1    1    1    1    1    1    1    1    1    1    1    1    1    1    1    1    1    1    1    1    1    1    1
         1    1    1    1    1    1    1    1    1    1    1    1    1    1    1    1    1    1    1    1    1    1    1    1    0
         0    0    0    0
  36     0    0    0    0    0    0    0    0    0    0    0    0    0    1    1    1    1    1    1    1    1    1    1    1    1
         1    1    1    1    1    1    1    1    1    1    1    1    1    1    1    1    1    1    1    1    1    1    1    1    1
         1    1    1    1    1    1    1    1    1    1    1    1    1    1    1    1    1    1    1    1    1    1    1    1    1
         0    0    0    0
  37     0    0    0    0    0    0    0    0    0    0    0    0    1    1    1    1    1    1    1    1    1    1    1    1    1
         1    1    1    1    1    1    1    1    1    1    1    1    1    1    1    1    1    1    1    1    1    1    1    1    1
         1    1    1    1    1    1    1    1    1    1    1    1    1    1    1    1    1    1    1    1    1    1    1    1    1
         0    0    0    0
  38     0    0    0    0    0    0    0    0    0    0    1    1    1    1    1    1    1    1    1    1    1    1    1    1    1
         1    1    1    1    1    1    1    1    1    1    1    1    1    1    1    1    1    1    1    1    1    1    1    1    1
         1    1    1    1    1    1    1    1    1    1    1    1    1    1    1    1    1    1    1    1    1    1    1    1    1
         1    0    0    0
  39     0    0    0    0    0    0    0    1    1    1    1    1    1    1    1    1    1    1    1    1    1    1    1    1    1
         1    1    1    1    1    1    1    1    1    1    1    1    1    1    1    1    1    1    1    1    1    1    1    1    1
         1    1    1    1    1    1    1    1    1    1    1    1    1    1    1    1    1    1    1    1    1    1    1    1    1
        -1    0    0    0
  40     0    0    0    0    0    0    1    1    1    1    1    1    1    1    1    1    1    1    1    1    1    1    1    1    1
         1    1    1    1    1    1    1    1    1    1    1    1    1    1    1    1    1    1    1    1    1    1    1    1    1
         1    1    1    1    1    1    1    1    1    1    1    1    1    1    1    1    1    1    1    1    1    1    1    1    1
        -1    0    0    0
  41     0    0    0    0    0    1    1    1    1    1    1    1    1    1    1    1    1    1    1    1    1    1    1    1    1
         1    1    1    1    1    1    1    1    1    1    1    1    1    1    1    1    1    1    1    1    1    1    1    1    1
         1    1    1    1    1    1    1    1    1    1    1    1    1    1    1    1    1    1    1    1    1    1    1    1    1
         0    0    0    0
  42     0    0    0    0    0    1    1    1    1    1    1    1    1    1    1    1    1    1    1    1    1    1    1    1    1
         1    1    1    1    1    1    1    1    1    1    1    1    1    1    1    1    1    1    1    1    1    1    1    1    1
         1    1    1    1    1    1    1    1    1    1    1    1    1    1    1    1    1    1    1    1    1    1    1    1    1
         0    0    0    0
  43     0    0    0    0    0    1    1    1    1    1    1    1    1    1    1    1    1    1    1    1    1    1    1    1    1
         1    1    1    1    1    1    1    1    1    1    1    1    1    1    1    1    1    1    1    1    1    1    1    1    1
         1    1    1    1    1    1    1    1    1    1    1    1    1    1    1    1    1    1    1    1    1    1    1    1    1
         0    0    0    0
  44     0    0    0    0    0    1    1    1    1    1    1    1    1    1    1    1    1    1    1    1    1    1    1    1    1
         1    1    1    1    1    1    1    1    1    1    1    1    1    1    1    1    1    1    1    1    1    1    1    1    1
         1    1    1    1    1    1    1    1    1    1    1    1    1    1    1    1    1    1    1    1    1    1    1    1    1
         0    0    0    0
  45     0    0    0    1    1    1    1    1    1    1    1    1    1    1    1    1    1    1    1    1    1    1    1    1    1
         1    1    1    1    1    1    1    1    1    1    1    1    1    1    1    1    1    1    1    1    1    1    1    1    1
         1    1    1    1    1    1    1    1    1    1    1    1    1    1    1    1    1    1    1    1    1    1    1    1    1
         0    0    0    0
  46     0    0    0    1    1    1    1    1    1    1    1    1    1    1    1    1    1    1    1    1    1    1    1    1    1
         1    1    1    1    1    1    1    1    1    1    1    1    1    1    1    1    1    1    1    1    1    1    1    1    1
         1    1    1    1    1    1    1    1    1    1    1    1    1    1    1    1    1    1    1    1    1    1    1    1    1
         0    0    0    0
  47     0    0    0    1    1    1    1    1    1    1    1    1    1    1    1    1    1    1    1    1    1    1    1    1    1
         1    1    1    1    1    1    1    1    1    1    1    1    1    1    1    1    1    1    1    1    1    1    1    1    1
         1    1    1    1    1    1    1    1    1    1    1    1    1    1    1    1    1    1    1    1    1    1    1    1    1
         0    0    0    0
  48     0    0    0    1    1    1    1    1    1    1    1    1    1    1    1    1    1    1    1    1    1    1    1    1    1
         1    1    1    1    1    1    1    1    1    1    1    1    1    1    1    1    1    1    1    1    1    1    1    1    1
         1    1    1    1    1    1    1    1    1    1    1    1    1    1    1    1    1    1    1    1    1    1    1    1    1
         1    0    0    0
  49     0    0    0    1    1    1    1    1    1    1    1    1    1    1    1    1    1    1    1    1    1    1    1    1    1
         1    1    1    1    1    1    1    1    1    1    1    1    1    1    1    1    1    1    1    1    1    1    1    1    1
         1    1    1    1    1    1    1    1    1    1    1    1    1    1    1    1    1    1    1    1    1    1    1    1    1
         1    0    0    0
  50     0    0    0    1    1    1    1    1    1    1    1    1    1    1    1    1    1    1    1    1    1    1    1    1    1
         1    1    1    1    1    1    1    1    1    1    1    1    1    1    1    1    1    1    1    1    1    1    1    1    1
         1    1    1    1    1    1    1    1    1    1    1    1    1    1    1    1    1    1    1    1    1    1    1    1    1
         1    0    0    0
  51     0    0    0    1    1    1    1    1    1    1    1    1    1    1    1    1    1    1    1    1    1    1    1    1    1
         1    1    1    1    1    1    1    1    1    1    1    1    1    1    1    1    1    1    1    1    1    1    1    1    1
         1    1    1    1    1    1    1    1    1    1    1    1    1    1    1    1    1    1    1    1    1    1    1    1    1
         1    0    0    0
  52     0    0    1    1    1    1    1    1    1    1    1    1    1    1    1    1    1    1    1    1    1    1    1    1    1
         1    1    1    1    1    1    1    1    1    1    1    1    1    1    1    1    1    1    1    1    1    1    1    1    1
         1    1    1    1    1    1    1    1    1    1    1    1    1    1    1    1    1    1    1    1    1    1    1    1    1
         1    0    0    0
  53     0    0    1    1    1    1    1    1    1    1    1    1    1    1    1    1    1    1    1    1    1    1    1    1    1
         1    1    1    1    1    1    1    1    1    1    1    1    1    1    1    1    1    1    1    1    1    1    1    1    1
         1    1    1    1    1    1    1    1    1    1    1    1    1    1    1    1    1    1    1    1    1    1    1    1    1
         1    1    0    0
  54     0    0    1    1    1    1    1    1    1    1    1    1    1    1    1    1    1    1    1    1    1    1    1    1    1
         1    1    1    1    1    1    1    1    1    1    1    1    1    1    1    1    1    1    1    1    1    1    1    1    1
         1    1    1    1    1    1    1    1    1    1    1    1    1    1    1    1    1    1    1    1    1    1    1    1    1
         1    1    0    0
  55     0    1    1    1    1    1    1    1    1    1    1    1    1    1    1    1    1    1    1    1    1    1    1    1    1
         1    1    1    1    1    1    1    1    1    1    1    1    1    1    1    1    1    1    1    1    1    1    1    1    1
         1    1    1    1    1    1    1    1    1    1    1    1    1    1    1    1    1    1    1    1    1    1    1    1    1
         1    1    0    0
  56     0    1    1    1    1    1    1    1    1    1    1    1    1    1    1    1    1    1    1    1    1    1    1    1    1
         1    1    1    1    1    1    1    1    1    1    1    1    1    1    1    1    1    1    1    1    1    1    1    1    1
         1    1    1    1    1    1    1    1    1    1    1    1    1    1    1    1    1    1    1    1    1    1    1    1    1
         1    1    0    0
  57     1    1    1    1    1    1    1    1    1    1    1    1    1    1    1    1    1    1    1    1    1    1    1    1    1
         1    1    1    1    1    1    1    1    1    1    1    1    1    1    1    1    1    1    1    1    1    1    1    1    1
         1    1    1    1    1    1    1    1    1    1    1    1    1    1    1    1    1    1    1    1    1    1    1    1    1
         1    1    0    0
  58     1    1    1    1    1    1    1    1    1    1    1    1    1    1    1    1    1    1    1    1    1    1    1    1    1
         1    1    1    1    1    1    1    1    1    1    1    1    1    1    1    1    1    1    1    1    1    1    1    1    1
         1    1    1    1    1    1    1    1    1    1    1    1    1    1    1    1    1    1    1    1    1    1    1    1    1
         1    1    0    0
  59     1    1    1    1    1    1    1    1    1    1    1    1    1    1    1    1    1    1    1    1    1    1    1    1    1
         1    1    1    1    1    1    1    1    1    1    1    1    1    1    1    1    1    1    1    1    1    1    1    1    1
         1    1    1    1    1    1    1    1    1    1    1    1    1    1    1    1    1    1    1    1    1    1    1    1    1
         1    1    1    0
  60     0    1    1    1    1    1    1    1    1    1    1    1    1    0    0    0    1    1    1    1    1    1    1    1    1
         1    1    1    1    1    1    1    1    1    1    1    1    1    1    1    1    1    1    1    1    1    1    1    1    1
         1    1    1    1    1    1    1    1    1    1    1    1    1    1    1    1    1    1    1    1    1    1    1    1    1
         1    1    1    1
  61     0    0    1    1    1    1    1    1    1    1    1    0    0    0    0    0    0    1    1    1    1    1    1    1    1
         1    1    1    1    1    1    1    1    1    1    1    1    1    1    1    1    1    1    1    1    1    1    1    1    1
         1    1    1    1    1    1    1    1    1    1    1    1    1    1    1    1    1    1    1    1    1    1    1    1    1
         1    1    1    1
  62     0    0    0    1    0    0    0    0    0    0    0    0    0    0    0    0    0    0    0    1    1    1    1    1    1
         1    1    1    1    1    1    1    1    1    1    1    1    1    1    1    1    1    1    1    1    1    1    1    1    1
         1    1    1    1    1    1    1    1    1    1    1    1    1    1    1    1    1    1    1    1    1    1    1    1    1
         1    1    1    1
  63     0    0    0    0    0    0    0    0    0    0    0    0    0    0    0    0    0    0    0    1    1    1    1    1    1
         1    1    1    1    1    1    1    1    1    1    1    1    1    1    1    1    1    1    1    1    1    1    1    1    1
         1    1    1    1    1    1    1    1    1    1    1    1    1    1    1    1    1    1    1    1    1    1    1    1    1
         1    1    1    1
  64     0    0    0    0    0    0    0    0    0    0    0    0    0    0    0    0    0    0    0    0    0    0    0    0    1
         1    1    1    1    1    1    1    1    1    1    1    1    1    1    1    1    1    1    1    1    1    1    1    1    1
         1    1    1    1    1    1    1    1    1    1    1    1    1    1    1    1    1    1    1    1    1    1    1    1    1
         1    1    1    1
  65     0    0    0    0    0    0    0    0    0    0    0    0    0    0    0    0    0    0    0    0    0    0    0    0    0
         0    0    0    0    0    0    0    0    1    1    1    1    1    1    1    1    1    1    1    1    0    0    0    0    1
         1    1    1    1    1    1    1    1    1    1    1    1    1    1    1    1    1    1    1    1    1    1    1    1    1
         1    1    1    1
  66     0    0    0    0    0    0    0    0    0    0    0    0    0    0    0    0    0    0    0    0    0    0    0    0    0
         0    0    0    0    0    0    0    0    0    0    1    1    0    0    0    0    0    0    0    0    0    0    0    0    0
         1    1    1    1    1    1    1    1    1    1    1    1    1    1    1    1    1    1    1    1    1    1    1    1    1
         1    1    1    1
  67     0    0    0    0    0    0    0    0    0    0    0    0    0    0    0    0    0    0    0    0    0    0    0    0    0
         0    0    0    0    0    0    0    0    0    0    0    0    0    0    0    0    0    0    0    0    0    0    0    0    0
         0    0    1    1    1    1    1    1    1    1    1    1    1    1    1    1    1    1    1    1    1    0    0    0    0
         0    0    0    0
  68     0    0    0    0    0    0    0    0    0    0    0    0    0    0    0    0    0    0    0    0    0    0    0    0    0
         0    0    0    0    0    0    0    0    0    0    0    0    0    0    0    0    0    0    0    0    0    0    0    0    0
         0    0    0    1    1    1    1    1    1    1    1    1    1    1    1    1    1    1    0    0    0    0    0    0    0
         0    0    0    0
  69     0    0    0    0    0    0    0    0    0    0    0    0    0    0    0    0    0    0    0    0    0    0    0    0    0
         0    0    0    0    0    0    0    0    0    0    0    0    0    0    0    0    0    0    0    0    0    0    0    0    0
         0    0    0    0    0    0    0    0    0    0    1    1    1    1    1    1    1    0    0    0    0    0    0    0    0
         0    0    0    0
  70     0    0    0    0    0    0    0    0    0    0    0    0    0    0    0    0    0    0    0    0    0    0    0    0    0
         0    0    0    0    0    0    0    0    0    0    0    0    0    0    0    0    0    0    0    0    0    0    0    0    0
         0    0    0    0    0    0    0    0    0    0    0    1    1    1    1    1    0    0    0    0    0    0    0    0    0
         0    0    0    0
  71     0    0    0    0    0    0    0    0    0    0    0    0    0    0    0    0    0    0    0    0    0    0    0    0    0
         0    0    0    0    0    0    0    0    0    0    0    0    0    0    0    0    0    0    0    0    0    0    0    0    0
         0    0    0    0    0    0    0    0    0    0    0    0    1    1    0    0    0    0    0    0    0    0    0    0    0
         0    0    0    0



                     BOUNDARY ARRAY FOR LAYER   2
 READING ON UNIT    8 WITH FORMAT: (FREE)              

         1    2    3    4    5    6    7    8    9   10   11   12   13   14   15   16   17   18   19   20   21   22   23   24   25
        26   27   28   29   30   31   32   33   34   35   36   37   38   39   40   41   42   43   44   45   46   47   48   49   50
        51   52   53   54   55   56   57   58   59   60   61   62   63   64   65   66   67   68   69   70   71   72   73   74   75
        76   77   78   79
 .................................................................................................................................
   1     0    0    0    0    0    0    0    0    0    0    0    0    0    0    0    0    0    0    0    0    0    0    0    0    0
         0    0    0    0    0    0    0    0    0    0    0    0    0    0    0    0    0    0    0    0    0    0    0    0    0
         0    1    1    0    0    0    0    0    0    0    0    0    0    0    0    0    0    0    0    0    0    0    0    0    0
         0    0    0    0
   2     0    0    0    0    0    0    0    0    0    0    0    0    0    0    0    0    0    0    0    0    0    0    0    0    0
         0    0    0    0    0    0    0    0    0    0    0    0    0    0    0    0    0    0    0    0    0    0    0    0    0
         0    1    1    1    0    0    0    0    0    0    0    0    0    0    0    0    0    0    0    0    0    0    0    0    0
         0    0    0    0
   3     0    0    0    0    0    0    0    0    0    0    0    0    0    0    0    0    0    0    0    0    0    0    0    0    0
         0    0    0    0    0    0    0    0    0    0    0    0    0    0    0    0    0    0    0    0    0    0    0    0    0
         0    1    1    1    0    0    0    0    0    0    0    0    0    0    0    0    0    0    0    0    0    0    0    0    0
         0    0    0    0
   4     0    0    0    0    0    0    0    0    0    0    0    0    0    0    0    0    0    0    0    0    0    0    0    0    0
         0    0    0    0    0    0    0    0    0    0    0    0    0    0    0    0    0    0    0    0    0    0    0    0    0
         0    1    1    1    1    0    0    0    0    0    0    0    0    0    0    0    0    0    0    0    0    0    0    0    0
         0    0    0    0
   5     0    0    0    0    0    0    0    0    0    0    0    0    0    0    0    0    0    0    0    0    0    0    0    0    0
         0    0    0    0    0    0    0    0    0    0    0    0    0    0    0    0    0    0    0    0    0    0    0    0    0
         0    1    1    1    1    1    1    0    0    0    0    0    0    0    0    0    0    0    0    0    0    0    0    0    0
         0    0    0    0
   6     0    0    0    0    0    0    0    0    0    0    0    0    0    0    0    0    0    0    0    0    0    0    0    0    0
         0    0    0    0    0    0    0    0    0    0    0    0    0    0    0    0    0    0    0    0    0    0    0    0    0
         0    1    1    1    1    1    1    1    1    0    0    0    0    1    1    0    0    0    0    0    0    0    0    0    0
         0    0    0    0
   7     0    0    0    0    0    0    0    0    0    0    0    0    0    0    0    0    0    0    0    0    0    0    0    0    0
         0    0    0    0    0    0    0    0    0    0    0    0    0    0    0    0    0    0    0    0    0    0    0    0    0
         0    1    1    1    1    1    1    1    1    1    1    1    1    1    1    1    0    0    0    0    0    0    0    0    0
         0    0    0    0
   8     0    0    0    0    0    0    0    0    0    0    0    0    0    0    0    0    0    0    0    0    0    0    0    0    0
         0    0    0    0    0    0    0    0    0    0    0    0    0    0    0    0    0    0    0    0    0    0    0    0    0
         0    1    1    1    1    1    1    1    1    1    1    1    1    1    1    1    1    1    0    0    0    0    0    0    0
         0    0    0    0
   9     0    0    0    0    0    0    0    0    0    0    0    0    0    0    0    0    0    0    0    0    0    0    0    0    0
         0    0    0    0    0    0    0    0    0    0    0    0    0    0    0    0    0    0    0    0    0    0    0    0    0
         1    1    1    1    1    1    1    1    1    1    1    1    1    1    1    1    1    1    1    0    0    0    0    0    0
         0    0    0    0
  10     0    0    0    0    0    0    0    0    0    0    0    0    0    0    0    0    0    0    0    0    0    0    0    0    0
         0    0    0    0    0    0    0    0    0    0    0    0    0    0    0    0    0    0    0    0    0    0    0    0    1
         1    1    1    1    1    1    1    1    1    1    1    1    1    1    1    1    1    1    1    1    0    0    0    0    0
         0    0    0    0
  11     0    0    0    0    0    0    0    0    0    0    0    0    0    0    0    0    0    0    0    0    0    0    0    0    0
         0    0    0    0    0    0    0    0    0    0    0    0    0    0    0    0    0    0    0    0    0    0    0    1    1
         1    1    1    1    1    1    1    1    1    1    1    1    1    1    1    1    1    1    1    1    1    0    0    0    0
         0    0    0    0
  12     0    0    0    0    0    0    0    0    0    0    0    0    0    0    0    0    0    0    0    0    0    0    0    0    0
         0    0    0    0    0    0    0    0    0    0    0    0    0    0    0    0    1    1    0    0    0    0    1    1    1
         1    1    1    1    1    1    1    1    1    1    1    1    1    1    1    1    1    1    1    1    1    0    0    0    0
         0    0    0    0
  13     0    0    0    0    0    0    0    0    0    0    0    0    0    0    0    0    0    0    0    0    0    0    0    0    0
         0    0    0    0    0    0    0    0    0    0    0    0    0    1    1    1    1    1    1    1    1    1    1    1    1
         1    1    1    1    1    1    1    1    1    1    1    1    1    1    1    1    1    1    1    1    1    1    0    0    0
         0    0    0    0
  14     0    0    0    0    0    0    0    0    0    0    0    0    0    0    0    0    0    0    0    0    0    0    0    0    0
         0    0    0    0    0    0    0    0    0    0    0    0    0    1    1    1    1    1    1    1    1    1    1    1    1
         1    1    1    1    1    1    1    1    1    1    1    1    1    1    1    1    1    1    1    1    1    1    1    0    0
         0    0    0    0
  15     0    0    0    0    0    0    0    0    0    0    0    0    0    0    0    0    0    0    0    0    0    0    0    0    0
         0    0    0    0    0    0    0    0    0    0    0    0    1    1    1    1    1    1    1    1    1    1    1    1    1
         1    1    1    1    1    1    1    1    1    1    1    1    1    1    1    1    1    1    1    1    1    1    1    0    0
         0    0    0    0
  16     0    0    0    0    0    0    0    0    0    0    0    0    0    0    0    0    0    0    0    0    0    0    0    0    0
         0    0    0    0    0    0    0    0    0    0    0    1    1    1    1    1    1    1    1    1    1    1    1    1    1
         1    1    1    1    1    1    1    1    1    1    1    1    1    1    1    1    1    1    1    1    1    1    1    1    0
         0    0    0    0
  17     0    0    0    0    0    0    0    0    0    0    0    0    0    0    0    0    0    0    0    0    0    0    0    0    0
         0    0    0    0    0    0    0    0    0    0    1    1    1    1    1    1    1    1    1    1    1    1    1    1    1
         1    1    1    1    1    1    1    1    1    1    1    1    1    1    1    1    1    1    1    1    1    1    1    1    0
         0    0    0    0
  18     0    0    0    0    0    0    0    0    0    0    0    0    0    0    0    0    0    0    0    0    0    0    0    0    0
         0    0    0    0    0    0    0    0    0    1    1    1    1    1    1    1    1    1    1    1    1    1    1    1    1
         1    1    1    1    1    1    1    1    1    1    1    1    1    1    1    1    1    1    1    1    1    1    1    1    0
         0    0    0    0
  19     0    0    0    0    0    0    0    0    0    0    0    0    0    0    0    0    0    0    0    0    0    0    0    0    0
         0    0    0    0    0    0    0    0    1    1    1    1    1    1    1    1    1    1    1    1    1    1    1    1    1
         1    1    1    1    1    1    1    1    1    1    1    1    1    1    1    1    1    1    1    1    1    1    1    1    0
         0    0    0    0
  20     0    0    0    0    0    0    0    0    0    0    0    0    0    0    0    0    0    0    0    0    0    0    0    0    0
         0    0    0    0    0    0    0    0    1    1    1    1    1    1    1    1    1    1    1    1    1    1    1    1    1
         1    1    1    1    1    1    1    1    1    1    1    1    1    1    1    1    1    1    1    1    1    1    1    1    0
         0    0    0    0
  21     0    0    0    0    0    0    0    0    0    0    0    0    0    0    0    0    0    0    0    0    0    0    0    0    0
         0    0    0    0    0    0    0    1    1    1    1    1    1    1    1    1    1    1    1    1    1    1    1    1    1
         1    1    1    1    1    1    1    1    1    1    1    1    1    1    1    1    1    1    1    1    1    1    1    1    1
         0    0    0    0
  22     0    0    0    0    0    0    0    0    0    0    0    0    0    0    0    0    0    0    0    0    0    0    0    0    0
         0    0    0    0    0    0    0    1    1    1    1    1    1    1    1    1    1    1    1    1    1    1    1    1    1
         1    1    1    1    1    1    1    1    1    1    1    1    1    1    1    1    1    1    1    1    1    1    1    1    0
         0    0    0    0
  23     0    0    0    0    0    0    0    0    0    0    0    0    0    0    0    0    0    0    0    0    0    0    0    0    0
         0    0    0    0    0    0    1    1    1    1    1    1    1    1    1    1    1    1    1    1    1    1    1    1    1
         1    1    1    1    1    1    1    1    1    1    1    1    1    1    1    1    1    1    1    1    1    0    0    0    0
         0    0    0    0
  24     0    0    0    0    0    0    0    0    0    0    0    0    0    0    0    0    0    0    0    0    0    0    0    0    0
         0    0    0    1    1    1    1    1    1    1    1    1    1    1    1    1    1    1    1    1    1    1    1    1    1
         1    1    1    1    1    1    1    1    1    1    1    1    1    1    1    1    1    1    1    1    1    0    0    0    0
         0    0    0    0
  25     0    0    0    0    0    0    0    0    0    0    0    0    0    0    0    0    0    0    0    0    0    0    0    0    0
         0    0    1    1    1    1    1    1    1    1    1    1    1    1    1    1    1    1    1    1    1    1    1    1    1
         1    1    1    1    1    1    1    1    1    1    1    1    1    1    1    1    1    1    1    1    1    0    0    0    0
         0    0    0    0
  26     0    0    0    0    0    0    0    0    0    0    0    0    0    0    0    0    0    0    0    0    0    0    0    0    0
         1    1    1    1    1    1    1    1    1    1    1    1    1    1    1    1    1    1    1    1    1    1    1    1    1
         1    1    1    1    1    1    1    1    1    1    1    1    1    1    1    1    1    1    1    1    1    0    0    0    0
         0    0    0    0
  27     0    0    0    0    0    0    0    0    0    0    0    0    0    0    0    0    0    0    0    0    0    0    0    0    1
         1    1    1    1    1    1    1    1    1    1    1    1    1    1    1    1    1    1    1    1    1    1    1    1    1
         1    1    1    1    1    1    1    1    1    1    1    1    1    1    1    1    1    1    1    1    1    0    0    0    0
         0    0    0    0
  28     0    0    0    0    0    0    0    0    0    0    0    0    0    0    0    0    0    0    0    0    0    0    0    1    1
         1    1    1    1    1    1    1    1    1    1    1    1    1    1    1    1    1    1    1    1    1    1    1    1    1
         1    1    1    1    1    1    1    1    1    1    1    1    1    1    1    1    1    1    1    1    1    1    0    0    0
         0    0    0    0
  29     0    0    0    0    0    0    0    0    0    0    0    0    0    0    0    0    0    0    0    0    0    1    1    1    1
         1    1    1    1    1    1    1    1    1    1    1    1    1    1    1    1    1    1    1    1    1    1    1    1    1
         1    1    1    1    1    1    1    1    1    1    1    1    1    1    1    1    1    1    1    1    1    1    0    0    0
         0    0    0    0
  30     0    0    0    0    0    0    0    0    0    0    0    0    0    0    0    0    0    0    0    1    1    1    1    1    1
         1    1    1    1    1    1    1    1    1    1    1    1    1    1    1    1    1    1    1    1    1    1    1    1    1
         1    1    1    1    1    1    1    1    1    1    1    1    1    1    1    1    1    1    1    1    1    1    0    0    0
         0    0    0    0
  31     0    0    0    0    0    0    0    0    0    0    0    0    0    0    0    0    0    0    1    1    1    1    1    1    1
         1    1    1    1    1    1    1    1    1    1    1    1    1    1    1    1    1    1    1    1    1    1    1    1    1
         1    1    1    1    1    1    1    1    1    1    1    1    1    1    1    1    1    1    1    1    1    1    0    0    0
         0    0    0    0
  32     0    0    0    0    0    0    0    0    0    0    0    0    0    0    0    0    1    1    1    1    1    1    1    1    1
         1    1    1    1    1    1    1    1    1    1    1    1    1    1    1    1    1    1    1    1    1    1    1    1    1
         1    1    1    1    1    1    1    1    1    1    1    1    1    1    1    1    1    1    1    1    1    1    0    0    0
         0    0    0    0
  33     0    0    0    0    0    0    0    0    0    0    0    0    0    0    0    1    1    1    1    1    1    1    1    1    1
         1    1    1    1    1    1    1    1    1    1    1    1    1    1    1    1    1    1    1    1    1    1    1    1    1
         1    1    1    1    1    1    1    1    1    1    1    1    1    1    1    1    1    1    1    1    1    1    1    0    0
         0    0    0    0
  34     0    0    0    0    0    0    0    0    0    0    0    0    0    0    1    1    1    1    1    1    1    1    1    1    1
         1    1    1    1    1    1    1    1    1    1    1    1    1    1    1    1    1    1    1    1    1    1    1    1    1
         1    1    1    1    1    1    1    1    1    1    1    1    1    1    1    1    1    1    1    1    1    1    1    0    0
         0    0    0    0
  35     0    0    0    0    0    0    0    0    0    0    0    0    0    1    1    1    1    1    1    1    1    1    1    1    1
         1    1    1    1    1    1    1    1    1    1    1    1    1    1    1    1    1    1    1    1    1    1    1    1    1
         1    1    1    1    1    1    1    1    1    1    1    1    1    1    1    1    1    1    1    1    1    1    1    1    0
         0    0    0    0
  36     0    0    0    0    0    0    0    0    0    0    0    0    0    1    1    1    1    1    1    1    1    1    1    1    1
         1    1    1    1    1    1    1    1    1    1    1    1    1    1    1    1    1    1    1    1    1    1    1    1    1
         1    1    1    1    1    1    1    1    1    1    1    1    1    1    1    1    1    1    1    1    1    1    1    1    1
         0    0    0    0
  37     0    0    0    0    0    0    0    0    0    0    0    0    1    1    1    1    1    1    1    1    1    1    1    1    1
         1    1    1    1    1    1    1    1    1    1    1    1    1    1    1    1    1    1    1    1    1    1    1    1    1
         1    1    1    1    1    1    1    1    1    1    1    1    1    1    1    1    1    1    1    1    1    1    1    1    1
         0    0    0    0
  38     0    0    0    0    0    0    0    0    0    0    1    1    1    1    1    1    1    1    1    1    1    1    1    1    1
         1    1    1    1    1    1    1    1    1    1    1    1    1    1    1    1    1    1    1    1    1    1    1    1    1
         1    1    1    1    1    1    1    1    1    1    1    1    1    1    1    1    1    1    1    1    1    1    1    1    1
         1    0    0    0
  39     0    0    0    0    0    0    0    1    1    1    1    1    1    1    1    1    1    1    1    1    1    1    1    1    1
         1    1    1    1    1    1    1    1    1    1    1    1    1    1    1    1    1    1    1    1    1    1    1    1    1
         1    1    1    1    1    1    1    1    1    1    1    1    1    1    1    1    1    1    1    1    1    1    1    1    1
        -1    0    0    0
  40     0    0    0    0    0    0    1    1    1    1    1    1    1    1    1    1    1    1    1    1    1    1    1    1    1
         1    1    1    1    1    1    1    1    1    1    1    1    1    1    1    1    1    1    1    1    1    1    1    1    1
         1    1    1    1    1    1    1    1    1    1    1    1    1    1    1    1    1    1    1    1    1    1    1    1    1
        -1    0    0    0
  41     0    0    0    0    0    1    1    1    1    1    1    1    1    1    1    1    1    1    1    1    1    1    1    1    1
         1    1    1    1    1    1    1    1    1    1    1    1    1    1    1    1    1    1    1    1    1    1    1    1    1
         1    1    1    1    1    1    1    1    1    1    1    1    1    1    1    1    1    1    1    1    1    1    1    1    1
         0    0    0    0
  42     0    0    0    0    0    1    1    1    1    1    1    1    1    1    1    1    1    1    1    1    1    1    1    1    1
         1    1    1    1    1    1    1    1    1    1    1    1    1    1    1    1    1    1    1    1    1    1    1    1    1
         1    1    1    1    1    1    1    1    1    1    1    1    1    1    1    1    1    1    1    1    1    1    1    1    1
         0    0    0    0
  43     0    0    0    0    0    1    1    1    1    1    1    1    1    1    1    1    1    1    1    1    1    1    1    1    1
         1    1    1    1    1    1    1    1    1    1    1    1    1    1    1    1    1    1    1    1    1    1    1    1    1
         1    1    1    1    1    1    1    1    1    1    1    1    1    1    1    1    1    1    1    1    1    1    1    1    1
         0    0    0    0
  44     0    0    0    0    0    1    1    1    1    1    1    1    1    1    1    1    1    1    1    1    1    1    1    1    1
         1    1    1    1    1    1    1    1    1    1    1    1    1    1    1    1    1    1    1    1    1    1    1    1    1
         1    1    1    1    1    1    1    1    1    1    1    1    1    1    1    1    1    1    1    1    1    1    1    1    1
         0    0    0    0
  45     0    0    0    1    1    1    1    1    1    1    1    1    1    1    1    1    1    1    1    1    1    1    1    1    1
         1    1    1    1    1    1    1    1    1    1    1    1    1    1    1    1    1    1    1    1    1    1    1    1    1
         1    1    1    1    1    1    1    1    1    1    1    1    1    1    1    1    1    1    1    1    1    1    1    1    1
         0    0    0    0
  46     0    0    0    1    1    1    1    1    1    1    1    1    1    1    1    1    1    1    1    1    1    1    1    1    1
         1    1    1    1    1    1    1    1    1    1    1    1    1    1    1    1    1    1    1    1    1    1    1    1    1
         1    1    1    1    1    1    1    1    1    1    1    1    1    1    1    1    1    1    1    1    1    1    1    1    1
         0    0    0    0
  47     0    0    0    1    1    1    1    1    1    1    1    1    1    1    1    1    1    1    1    1    1    1    1    1    1
         1    1    1    1    1    1    1    1    1    1    1    1    1    1    1    1    1    1    1    1    1    1    1    1    1
         1    1    1    1    1    1    1    1    1    1    1    1    1    1    1    1    1    1    1    1    1    1    1    1    1
         0    0    0    0
  48     0    0    0    1    1    1    1    1    1    1    1    1    1    1    1    1    1    1    1    1    1    1    1    1    1
         1    1    1    1    1    1    1    1    1    1    1    1    1    1    1    1    1    1    1    1    1    1    1    1    1
         1    1    1    1    1    1    1    1    1    1    1    1    1    1    1    1    1    1    1    1    1    1    1    1    1
         1    0    0    0
  49     0    0    0    1    1    1    1    1    1    1    1    1    1    1    1    1    1    1    1    1    1    1    1    1    1
         1    1    1    1    1    1    1    1    1    1    1    1    1    1    1    1    1    1    1    1    1    1    1    1    1
         1    1    1    1    1    1    1    1    1    1    1    1    1    1    1    1    1    1    1    1    1    1    1    1    1
         1    0    0    0
  50     0    0    0    1    1    1    1    1    1    1    1    1    1    1    1    1    1    1    1    1    1    1    1    1    1
         1    1    1    1    1    1    1    1    1    1    1    1    1    1    1    1    1    1    1    1    1    1    1    1    1
         1    1    1    1    1    1    1    1    1    1    1    1    1    1    1    1    1    1    1    1    1    1    1    1    1
         1    0    0    0
  51     0    0    0    1    1    1    1    1    1    1    1    1    1    1    1    1    1    1    1    1    1    1    1    1    1
         1    1    1    1    1    1    1    1    1    1    1    1    1    1    1    1    1    1    1    1    1    1    1    1    1
         1    1    1    1    1    1    1    1    1    1    1    1    1    1    1    1    1    1    1    1    1    1    1    1    1
         1    0    0    0
  52     0    0    1    1    1    1    1    1    1    1    1    1    1    1    1    1    1    1    1    1    1    1    1    1    1
         1    1    1    1    1    1    1    1    1    1    1    1    1    1    1    1    1    1    1    1    1    1    1    1    1
         1    1    1    1    1    1    1    1    1    1    1    1    1    1    1    1    1    1    1    1    1    1    1    1    1
         1    0    0    0
  53     0    0    1    1    1    1    1    1    1    1    1    1    1    1    1    1    1    1    1    1    1    1    1    1    1
         1    1    1    1    1    1    1    1    1    1    1    1    1    1    1    1    1    1    1    1    1    1    1    1    1
         1    1    1    1    1    1    1    1    1    1    1    1    1    1    1    1    1    1    1    1    1    1    1    1    1
         1    1    0    0
  54     0    0    1    1    1    1    1    1    1    1    1    1    1    1    1    1    1    1    1    1    1    1    1    1    1
         1    1    1    1    1    1    1    1    1    1    1    1    1    1    1    1    1    1    1    1    1    1    1    1    1
         1    1    1    1    1    1    1    1    1    1    1    1    1    1    1    1    1    1    1    1    1    1    1    1    1
         1    1    0    0
  55     0    1    1    1    1    1    1    1    1    1    1    1    1    1    1    1    1    1    1    1    1    1    1    1    1
         1    1    1    1    1    1    1    1    1    1    1    1    1    1    1    1    1    1    1    1    1    1    1    1    1
         1    1    1    1    1    1    1    1    1    1    1    1    1    1    1    1    1    1    1    1    1    1    1    1    1
         1    1    0    0
  56     0    1    1    1    1    1    1    1    1    1    1    1    1    1    1    1    1    1    1    1    1    1    1    1    1
         1    1    1    1    1    1    1    1    1    1    1    1    1    1    1    1    1    1    1    1    1    1    1    1    1
         1    1    1    1    1    1    1    1    1    1    1    1    1    1    1    1    1    1    1    1    1    1    1    1    1
         1    1    0    0
  57     1    1    1    1    1    1    1    1    1    1    1    1    1    1    1    1    1    1    1    1    1    1    1    1    1
         1    1    1    1    1    1    1    1    1    1    1    1    1    1    1    1    1    1    1    1    1    1    1    1    1
         1    1    1    1    1    1    1    1    1    1    1    1    1    1    1    1    1    1    1    1    1    1    1    1    1
         1    1    0    0
  58     1    1    1    1    1    1    1    1    1    1    1    1    1    1    1    1    1    1    1    1    1    1    1    1    1
         1    1    1    1    1    1    1    1    1    1    1    1    1    1    1    1    1    1    1    1    1    1    1    1    1
         1    1    1    1    1    1    1    1    1    1    1    1    1    1    1    1    1    1    1    1    1    1    1    1    1
         1    1    0    0
  59     1    1    1    1    1    1    1    1    1    1    1    1    1    1    1    1    1    1    1    1    1    1    1    1    1
         1    1    1    1    1    1    1    1    1    1    1    1    1    1    1    1    1    1    1    1    1    1    1    1    1
         1    1    1    1    1    1    1    1    1    1    1    1    1    1    1    1    1    1    1    1    1    1    1    1    1
         1    1    1    0
  60     0    1    1    1    1    1    1    1    1    1    1    1    1    0    0    0    1    1    1    1    1    1    1    1    1
         1    1    1    1    1    1    1    1    1    1    1    1    1    1    1    1    1    1    1    1    1    1    1    1    1
         1    1    1    1    1    1    1    1    1    1    1    1    1    1    1    1    1    1    1    1    1    1    1    1    1
         1    1    1    1
  61     0    0    1    1    1    1    1    1    1    1    1    0    0    0    0    0    0    1    1    1    1    1    1    1    1
         1    1    1    1    1    1    1    1    1    1    1    1    1    1    1    1    1    1    1    1    1    1    1    1    1
         1    1    1    1    1    1    1    1    1    1    1    1    1    1    1    1    1    1    1    1    1    1    1    1    1
         1    1    1    1
  62     0    0    0    1    0    0    0    0    0    0    0    0    0    0    0    0    0    0    0    1    1    1    1    1    1
         1    1    1    1    1    1    1    1    1    1    1    1    1    1    1    1    1    1    1    1    1    1    1    1    1
         1    1    1    1    1    1    1    1    1    1    1    1    1    1    1    1    1    1    1    1    1    1    1    1    1
         1    1    1    1
  63     0    0    0    0    0    0    0    0    0    0    0    0    0    0    0    0    0    0    0    1    1    1    1    1    1
         1    1    1    1    1    1    1    1    1    1    1    1    1    1    1    1    1    1    1    1    1    1    1    1    1
         1    1    1    1    1    1    1    1    1    1    1    1    1    1    1    1    1    1    1    1    1    1    1    1    1
         1    1    1    1
  64     0    0    0    0    0    0    0    0    0    0    0    0    0    0    0    0    0    0    0    0    0    0    0    0    1
         1    1    1    1    1    1    1    1    1    1    1    1    1    1    1    1    1    1    1    1    1    1    1    1    1
         1    1    1    1    1    1    1    1    1    1    1    1    1    1    1    1    1    1    1    1    1    1    1    1    1
         1    1    1    1
  65     0    0    0    0    0    0    0    0    0    0    0    0    0    0    0    0    0    0    0    0    0    0    0    0    0
         0    0    0    0    0    0    0    0    1    1    1    1    1    1    1    1    1    1    1    1    0    0    0    0    1
         1    1    1    1    1    1    1    1    1    1    1    1    1    1    1    1    1    1    1    1    1    1    1    1    1
         1    1    1    1
  66     0    0    0    0    0    0    0    0    0    0    0    0    0    0    0    0    0    0    0    0    0    0    0    0    0
         0    0    0    0    0    0    0    0    0    0    1    1    0    0    0    0    0    0    0    0    0    0    0    0    0
         1    1    1    1    1    1    1    1    1    1    1    1    1    1    1    1    1    1    1    1    1    1    1    1    1
         1    1    1    1
  67     0    0    0    0    0    0    0    0    0    0    0    0    0    0    0    0    0    0    0    0    0    0    0    0    0
         0    0    0    0    0    0    0    0    0    0    0    0    0    0    0    0    0    0    0    0    0    0    0    0    0
         0    0    1    1    1    1    1    1    1    1    1    1    1    1    1    1    1    1    1    1    1    0    0    0    0
         0    0    0    0
  68     0    0    0    0    0    0    0    0    0    0    0    0    0    0    0    0    0    0    0    0    0    0    0    0    0
         0    0    0    0    0    0    0    0    0    0    0    0    0    0    0    0    0    0    0    0    0    0    0    0    0
         0    0    0    1    1    1    1    1    1    1    1    1    1    1    1    1    1    1    0    0    0    0    0    0    0
         0    0    0    0
  69     0    0    0    0    0    0    0    0    0    0    0    0    0    0    0    0    0    0    0    0    0    0    0    0    0
         0    0    0    0    0    0    0    0    0    0    0    0    0    0    0    0    0    0    0    0    0    0    0    0    0
         0    0    0    0    0    0    0    0    0    0    1    1    1    1    1    1    1    0    0    0    0    0    0    0    0
         0    0    0    0
  70     0    0    0    0    0    0    0    0    0    0    0    0    0    0    0    0    0    0    0    0    0    0    0    0    0
         0    0    0    0    0    0    0    0    0    0    0    0    0    0    0    0    0    0    0    0    0    0    0    0    0
         0    0    0    0    0    0    0    0    0    0    0    1    1    1    1    1    0    0    0    0    0    0    0    0    0
         0    0    0    0
  71     0    0    0    0    0    0    0    0    0    0    0    0    0    0    0    0    0    0    0    0    0    0    0    0    0
         0    0    0    0    0    0    0    0    0    0    0    0    0    0    0    0    0    0    0    0    0    0    0    0    0
         0    0    0    0    0    0    0    0    0    0    0    0    1    1    0    0    0    0    0    0    0    0    0    0    0
         0    0    0    0

 AQUIFER HEAD WILL BE SET TO  -999.00     AT ALL NO-FLOW NODES (IBOUND=0).



                       INITIAL HEAD FOR LAYER   1
 READING ON UNIT    8 WITH FORMAT: (FREE)              

            1           2           3           4           5           6           7           8           9          10
           11          12          13          14          15          16          17          18          19          20
           21          22          23          24          25          26          27          28          29          30
           31          32          33          34          35          36          37          38          39          40
           41          42          43          44          45          46          47          48          49          50
           51          52          53          54          55          56          57          58          59          60
           61          62          63          64          65          66          67          68          69          70
           71          72          73          74          75          76          77          78          79
 ........................................................................................................................
   1    2322.       2303.       2280.       2256.       2234.       2234.       2244.       2253.       2239.       2220.    
        2204.       2191.       2173.       2161.       2156.       2155.       2155.       2156.       2157.       2157.    
        2166.       2177.       2182.       2176.       2164.       2152.       2145.       2147.       2149.       2148.    
        2146.       2135.       2106.       2095.       2105.       2123.       2148.       2161.       2151.       2139.    
        2133.       2130.       2127.       2124.       2122.       2120.       2120.       2130.       2144.       2154.    
        2164.       2173.       2163.       2141.       2133.       2130.       2125.       2116.       2109.       2107.    
        2104.       2106.       2109.       2117.       2126.       2132.       2125.       2111.       2095.       2085.    
        2074.       2066.       2059.       2054.       2051.       2052.       2061.       2057.       2043.    
   2    2339.       2319.       2292.       2270.       2248.       2243.       2256.       2264.       2249.       2234.    
        2220.       2204.       2192.       2175.       2161.       2157.       2157.       2160.       2167.       2174.    
        2187.       2190.       2189.       2171.       2154.       2146.       2144.       2146.       2149.       2152.    
        2149.       2133.       2107.       2101.       2110.       2127.       2142.       2163.       2160.       2149.    
        2136.       2131.       2128.       2124.       2121.       2120.       2121.       2130.       2146.       2158.    
        2167.       2171.       2157.       2132.       2123.       2123.       2121.       2114.       2111.       2110.    
        2109.       2108.       2110.       2119.       2127.       2135.       2131.       2118.       2102.       2090.    
        2081.       2071.       2062.       2055.       2051.       2052.       2056.       2061.       2060.    
   3    2343.       2324.       2304.       2285.       2261.       2254.       2265.       2279.       2262.       2246.    
        2232.       2219.       2204.       2193.       2175.       2164.       2165.       2173.       2183.       2196.    
        2196.       2197.       2181.       2162.       2145.       2143.       2143.       2145.       2148.       2150.    
        2144.       2121.       2109.       2102.       2112.       2128.       2145.       2163.       2168.       2155.    
        2141.       2133.       2129.       2126.       2123.       2120.       2121.       2132.       2148.       2157.    
        2163.       2164.       2149.       2122.       2121.       2120.       2118.       2114.       2112.       2114.    
        2113.       2111.       2112.       2120.       2128.       2131.       2125.       2114.       2102.       2093.    
        2083.       2072.       2063.       2052.       2047.       2047.       2053.       2062.       2059.    
   4    2344.       2329.       2310.       2293.       2282.       2269.       2272.       2285.       2275.       2258.    
        2242.       2227.       2215.       2200.       2190.       2174.       2174.       2181.       2188.       2192.    
        2196.       2185.       2167.       2150.       2144.       2141.       2142.       2143.       2143.       2141.    
        2128.       2118.       2110.       2108.       2117.       2126.       2142.       2158.       2171.       2159.    
        2147.       2134.       2131.       2129.       2124.       2122.       2125.       2135.       2145.       2152.    
        2158.       2157.       2138.       2121.       2120.       2118.       2116.       2114.       2114.       2119.    
        2119.       2116.       2116.       2121.       2127.       2128.       2121.       2112.       2101.       2093.    
        2088.       2078.       2065.       2050.       2045.       2042.       2045.       2047.       2035.    
   5    2346.       2332.       2318.       2307.       2303.       2288.       2278.       2285.       2282.       2267.    
        2248.       2234.       2220.       2213.       2202.       2183.       2181.       2181.       2184.       2184.    
        2180.       2167.       2147.       2140.       2135.       2140.       2139.       2138.       2137.       2133.    
        2124.       2117.       2110.       2115.       2123.       2127.       2136.       2153.       2172.       2162.    
        2152.       2141.       2135.       2133.       2129.       2126.       2128.       2134.       2142.       2149.    
        2154.       2151.       2131.       2120.       2118.       2118.       2116.       2116.       2119.       2123.    
        2124.       2122.       2119.       2122.       2126.       2126.       2120.       2110.       2099.       2096.    
        2091.       2080.       2068.       2056.       2048.       2040.       2035.       2029.       2017.    
   6    2340.       2333.       2326.       2321.       2317.       2302.       2289.       2288.       2284.       2273.    
        2255.       2236.       2230.       2226.       2212.       2198.       2189.       2187.       2178.       2169.    
        2164.       2148.       2137.       2132.       2137.       2137.       2137.       2135.       2133.       2123.    
        2118.       2113.       2113.       2119.       2125.       2131.       2141.       2153.       2170.       2167.    
        2161.       2151.       2141.       2135.       2133.       2129.       2132.       2136.       2142.       2148.    
        2152.       2149.       2132.       2121.       2119.       2116.       2114.       2116.       2120.       2123.    
        2125.       2123.       2120.       2122.       2124.       2125.       2122.       2113.       2108.       2102.    
        2090.       2075.       2068.       2064.       2064.       2053.       2035.       2028.       2017.    
   7    2340.       2334.       2328.       2329.       2318.       2305.       2293.       2289.       2285.       2277.    
        2262.       2243.       2238.       2239.       2235.       2214.       2200.       2195.       2171.       2161.    
        2151.       2139.       2132.       2126.       2132.       2134.       2134.       2131.       2126.       2119.    
        2115.       2113.       2118.       2123.       2127.       2135.       2143.       2155.       2171.       2169.    
        2164.       2156.       2145.       2141.       2139.       2133.       2134.       2138.       2145.       2149.    
        2155.       2151.       2136.       2132.       2120.       2113.       2111.       2114.       2119.       2122.    
        2126.       2124.       2121.       2119.       2122.       2123.       2122.       2118.       2113.       2108.    
        2099.       2077.       2071.       2072.       2071.       2062.       2053.       2040.       2030.    
   8    2340.       2336.       2333.       2336.       2325.       2310.       2297.       2291.       2285.       2278.    
        2261.       2248.       2245.       2246.       2240.       2226.       2208.       2193.       2172.       2157.    
        2144.       2135.       2129.       2124.       2122.       2122.       2126.       2126.       2122.       2118.    
        2114.       2117.       2123.       2126.       2131.       2136.       2147.       2160.       2171.       2170.    
        2166.       2162.       2151.       2148.       2149.       2138.       2137.       2143.       2150.       2155.    
        2160.       2158.       2146.       2136.       2120.       2109.       2109.       2111.       2117.       2123.    
        2126.       2125.       2122.       2117.       2116.       2117.       2117.       2118.       2117.       2120.    
        2113.       2094.       2085.       2084.       2081.       2077.       2074.       2060.       2036.    
   9    2341.       2338.       2335.       2343.       2330.       2314.       2301.       2293.       2285.       2280.    
        2267.       2256.       2254.       2248.       2240.       2229.       2210.       2194.       2174.       2159.    
        2148.       2135.       2125.       2122.       2121.       2120.       2120.       2120.       2119.       2116.    
        2115.       2119.       2125.       2131.       2135.       2138.       2151.       2169.       2177.       2175.    
        2170.       2166.       2158.       2156.       2153.       2144.       2143.       2146.       2151.       2156.    
        2160.       2152.       2141.       2132.       2121.       2110.       2106.       2108.       2110.       2119.    
        2125.       2125.       2122.       2116.       2110.       2108.       2111.       2116.       2120.       2125.    
        2125.       2118.       2115.       2113.       2103.       2074.       2065.       2049.       2031.    
  10    2342.       2339.       2334.       2336.       2330.       2315.       2302.       2293.       2289.       2282.    
        2267.       2265.       2259.       2251.       2243.       2230.       2212.       2195.       2177.       2163.    
        2148.       2132.       2122.       2121.       2120.       2119.       2119.       2118.       2117.       2115.    
        2116.       2120.       2125.       2132.       2138.       2143.       2152.       2175.       2185.       2182.    
        2179.       2172.       2167.       2165.       2157.       2147.       2148.       2150.       2151.       2151.    
        2154.       2147.       2140.       2130.       2117.       2111.       2106.       2107.       2108.       2115.    
        2120.       2121.       2119.       2116.       2111.       2099.       2106.       2115.       2122.       2127.    
        2130.       2129.       2128.       2120.       2100.       2070.       2056.       2044.       2030.    
  11    2341.       2337.       2333.       2329.       2322.       2316.       2310.       2301.       2293.       2290.    
        2279.       2273.       2265.       2257.       2250.       2231.       2215.       2197.       2177.       2161.    
        2141.       2130.       2122.       2122.       2122.       2121.       2120.       2118.       2116.       2116.    
        2117.       2120.       2126.       2134.       2141.       2146.       2158.       2171.       2183.       2185.    
        2186.       2181.       2182.       2172.       2160.       2156.       2156.       2152.       2150.       2148.    
        2146.       2143.       2139.       2130.       2118.       2111.       2106.       2105.       2105.       2108.    
        2112.       2112.       2113.       2112.       2107.       2097.       2104.       2112.       2119.       2125.    
        2130.       2131.       2128.       2122.       2100.       2072.       2057.       2044.       2035.    
  12    2341.       2339.       2337.       2333.       2329.       2329.       2322.       2314.       2305.       2302.    
        2292.       2280.       2275.       2271.       2254.       2232.       2219.       2195.       2167.       2148.    
        2135.       2123.       2121.       2122.       2122.       2123.       2122.       2120.       2117.       2117.    
        2117.       2120.       2128.       2137.       2147.       2154.       2166.       2183.       2188.       2184.    
        2186.       2187.       2181.       2172.       2167.       2163.       2160.       2156.       2152.       2146.    
        2143.       2137.       2136.       2135.       2121.       2112.       2108.       2103.       2101.       2102.    
        2104.       2106.       2107.       2106.       2101.       2094.       2097.       2105.       2112.       2123.    
        2128.       2128.       2125.       2123.       2113.       2090.       2063.       2053.       2047.    
  13    2343.       2341.       2341.       2340.       2337.       2335.       2330.       2326.       2322.       2320.    
        2309.       2296.       2277.       2254.       2238.       2229.       2208.       2179.       2150.       2137.    
        2126.       2120.       2117.       2117.       2118.       2122.       2119.       2118.       2118.       2117.    
        2118.       2121.       2131.       2145.       2158.       2173.       2181.       2189.       2188.       2185.    
        2184.       2182.       2171.       2167.       2165.       2164.       2161.       2157.       2150.       2144.    
        2139.       2134.       2131.       2128.       2122.       2114.       2108.       2102.       2098.       2096.    
        2097.       2098.       2103.       2101.       2096.       2088.       2089.       2096.       2108.       2121.    
        2123.       2124.       2121.       2117.       2110.       2098.       2079.       2061.       2048.    
  14    2355.       2346.       2346.       2345.       2344.       2343.       2342.       2335.       2322.       2308.    
        2283.       2259.       2237.       2223.       2217.       2206.       2185.       2164.       2135.       2122.    
        2118.       2117.       2117.       2117.       2117.       2117.       2117.       2117.       2117.       2118.    
        2118.       2122.       2142.       2156.       2172.       2184.       2194.       2193.       2188.       2178.    
        2172.       2168.       2158.       2157.       2157.       2161.       2160.       2155.       2148.       2142.    
        2137.       2132.       2128.       2124.       2120.       2116.       2110.       2104.       2098.       2092.    
        2092.       2094.       2097.       2097.       2089.       2081.       2080.       2087.       2098.       2113.    
        2116.       2118.       2118.       2114.       2108.       2102.       2085.       2064.       2052.    
  15    2370.       2352.       2345.       2345.       2335.       2329.       2321.       2315.       2294.       2264.    
        2241.       2213.       2192.       2190.       2185.       2171.       2152.       2133.       2118.       2117.    
        2117.       2117.       2117.       2117.       2117.       2117.       2117.       2117.       2117.       2117.    
        2118.       2127.       2149.       2166.       2187.       2196.       2196.       2197.       2186.       2178.    
        2170.       2153.       2145.       2142.       2143.       2150.       2152.       2151.       2146.       2140.    
        2134.       2129.       2124.       2120.       2116.       2113.       2111.       2106.       2100.       2091.    
        2087.       2090.       2092.       2090.       2087.       2078.       2073.       2078.       2085.       2097.    
        2105.       2110.       2114.       2114.       2113.       2109.       2095.       2073.       2053.    
  16    2350.       2330.       2311.       2306.       2293.       2282.       2261.       2269.       2241.       2213.    
        2195.       2169.       2154.       2153.       2142.       2128.       2118.       2117.       2117.       2117.    
        2117.       2117.       2117.       2117.       2117.       2117.       2117.       2117.       2117.       2117.    
        2122.       2143.       2162.       2186.       2203.       2205.       2207.       2195.       2186.       2175.    
        2164.       2155.       2150.       2146.       2131.       2136.       2137.       2140.       2139.       2136.    
        2132.       2125.       2120.       2115.       2111.       2109.       2107.       2105.       2101.       2097.    
        2083.       2086.       2089.       2088.       2086.       2078.       2070.       2070.       2072.       2084.    
        2092.       2102.       2109.       2110.       2110.       2105.       2098.       2076.       2056.    
  17    2301.       2283.       2267.       2257.       2242.       2227.       2213.       2203.       2183.       2168.    
        2145.       2130.       2121.       2117.       2117.       2117.       2117.       2117.       2117.       2117.    
        2117.       2117.       2117.       2117.       2117.       2117.       2117.       2117.       2117.       2119.    
        2144.       2166.       2191.       2205.       2211.       2208.       2202.       2186.       2179.       2170.    
        2158.       2155.       2152.       2148.       2135.       2124.       2122.       2122.       2129.       2129.    
        2125.       2119.       2113.       2110.       2108.       2106.       2105.       2103.       2100.       2097.    
        2083.       2082.       2087.       2085.       2078.       2067.       2065.       2062.       2063.       2069.    
        2077.       2093.       2101.       2103.       2102.       2098.       2091.       2077.       2055.    
  18    2256.       2235.       2222.       2207.       2192.       2183.       2164.       2150.       2133.       2122.    
        2117.       2117.       2117.       2117.       2117.       2117.       2117.       2117.       2117.       2117.    
        2117.       2117.       2117.       2117.       2117.       2117.       2117.       2117.       2127.       2150.    
        2176.       2199.       2213.       2221.       2214.       2207.       2194.       2182.       2174.       2167.    
        2158.       2155.       2150.       2146.       2133.       2126.       2117.       2105.       2115.       2120.    
        2117.       2111.       2108.       2104.       2102.       2102.       2102.       2101.       2099.       2093.    
        2086.       2073.       2078.       2075.       2067.       2060.       2060.       2057.       2057.       2056.    
        2066.       2081.       2091.       2096.       2097.       2091.       2083.       2074.       2052.    
  19    2212.       2190.       2180.       2166.       2152.       2138.       2122.       2117.       2117.       2117.    
        2117.       2117.       2117.       2117.       2117.       2117.       2117.       2117.       2117.       2117.    
        2117.       2117.       2117.       2117.       2117.       2117.       2118.       2129.       2154.       2185.    
        2209.       2214.       2230.       2220.       2208.       2210.       2195.       2184.       2181.       2172.    
        2163.       2157.       2151.       2147.       2139.       2133.       2117.       2092.       2099.       2108.    
        2109.       2103.       2102.       2099.       2097.       2098.       2100.       2100.       2098.       2089.    
        2081.       2071.       2063.       2063.       2060.       2055.       2057.       2056.       2056.       2056.    
        2058.       2070.       2084.       2096.       2100.       2091.       2082.       2071.       2052.    
  20    2178.       2163.       2147.       2134.       2124.       2117.       2117.       2117.       2117.       2117.    
        2117.       2117.       2117.       2117.       2117.       2117.       2117.       2117.       2117.       2117.    
        2117.       2117.       2117.       2117.       2117.       2120.       2134.       2155.       2184.       2196.    
        2208.       2230.       2224.       2219.       2227.       2228.       2210.       2199.       2187.       2179.    
        2172.       2159.       2149.       2146.       2138.       2132.       2113.       2087.       2089.       2095.    
        2099.       2095.       2095.       2093.       2093.       2094.       2098.       2097.       2092.       2084.    
        2077.       2069.       2060.       2054.       2055.       2053.       2056.       2059.       2060.       2062.    
        2060.       2067.       2083.       2110.       2114.       2097.       2082.       2070.       2051.    
  21    2154.       2141.       2125.       2118.       2117.       2117.       2117.       2117.       2117.       2117.    
        2117.       2117.       2117.       2117.       2117.       2117.       2117.       2117.       2117.       2117.    
        2117.       2117.       2117.       2117.       2119.       2140.       2159.       2177.       2194.       2198.    
        2231.       2229.       2230.       2239.       2243.       2230.       2210.       2194.       2179.       2168.    
        2158.       2148.       2139.       2131.       2124.       2116.       2100.       2077.       2074.       2081.    
        2087.       2085.       2085.       2085.       2088.       2091.       2095.       2092.       2085.       2080.    
        2075.       2067.       2060.       2051.       2051.       2052.       2061.       2065.       2073.       2073.    
        2070.       2070.       2082.       2097.       2107.       2105.       2086.       2073.       2056.    
  22    2136.       2120.       2117.       2117.       2117.       2117.       2117.       2117.       2117.       2117.    
        2117.       2117.       2117.       2117.       2117.       2117.       2117.       2117.       2117.       2117.    
        2117.       2117.       2117.       2125.       2146.       2167.       2187.       2206.       2221.       2235.    
        2235.       2237.       2248.       2245.       2232.       2215.       2199.       2183.       2171.       2162.    
        2151.       2138.       2126.       2114.       2100.       2092.       2075.       2065.       2060.       2068.    
        2077.       2077.       2076.       2080.       2085.       2088.       2091.       2087.       2081.       2075.    
        2071.       2066.       2061.       2051.       2048.       2051.       2058.       2065.       2070.       2075.    
        2080.       2077.       2077.       2087.       2100.       2108.       2099.       2076.       2063.    
  23    2118.       2117.       2117.       2117.       2117.       2117.       2117.       2117.       2117.       2117.    
        2117.       2117.       2117.       2117.       2117.       2117.       2117.       2117.       2117.       2117.    
        2117.       2117.       2132.       2150.       2175.       2197.       2217.       2241.       2239.       2244.    
        2254.       2257.       2243.       2230.       2216.       2201.       2185.       2173.       2160.       2150.    
        2144.       2136.       2123.       2111.       2092.       2073.       2062.       2055.       2049.       2060.    
        2067.       2067.       2069.       2074.       2082.       2085.       2089.       2088.       2079.       2071.    
        2069.       2065.       2061.       2050.       2045.       2047.       2053.       2062.       2070.       2077.    
        2086.       2078.       2075.       2081.       2094.       2104.       2098.       2079.       2068.    
  24    2117.       2117.       2117.       2117.       2117.       2117.       2117.       2117.       2117.       2117.    
        2117.       2117.       2117.       2117.       2117.       2117.       2117.       2117.       2117.       2117.    
        2124.       2143.       2165.       2185.       2205.       2232.       2260.       2257.       2253.       2258.    
        2251.       2240.       2226.       2212.       2199.       2182.       2169.       2156.       2145.       2136.    
        2129.       2119.       2111.       2105.       2093.       2075.       2059.       2047.       2040.       2050.    
        2054.       2054.       2059.       2073.       2077.       2081.       2085.       2086.       2077.       2071.    
        2066.       2065.       2062.       2048.       2045.       2045.       2047.       2056.       2067.       2077.    
        2087.       2080.       2065.       2069.       2078.       2093.       2081.       2070.       2062.    
  25    2117.       2117.       2117.       2117.       2117.       2117.       2117.       2117.       2117.       2117.    
        2117.       2117.       2117.       2117.       2117.       2117.       2119.       2117.       2122.       2133.    
        2155.       2176.       2196.       2217.       2235.       2259.       2274.       2265.       2240.       2229.    
        2229.       2218.       2207.       2196.       2181.       2168.       2155.       2139.       2126.       2119.    
        2113.       2106.       2097.       2092.       2087.       2077.       2058.       2045.       2035.       2038.    
        2042.       2043.       2049.       2064.       2071.       2074.       2078.       2081.       2075.       2065.    
        2062.       2062.       2062.       2057.       2049.       2049.       2045.       2048.       2059.       2068.    
        2079.       2075.       2056.       2053.       2058.       2062.       2064.       2061.       2053.    
  26    2117.       2117.       2117.       2117.       2117.       2117.       2117.       2117.       2117.       2117.    
        2117.       2117.       2117.       2117.       2117.       2126.       2131.       2134.       2150.       2168.    
        2185.       2210.       2234.       2255.       2274.       2274.       2259.       2237.       2212.       2203.    
        2202.       2196.       2187.       2177.       2164.       2151.       2135.       2119.       2108.       2103.    
        2098.       2088.       2083.       2079.       2077.       2072.       2061.       2042.       2033.       2026.    
        2027.       2032.       2040.       2053.       2064.       2068.       2071.       2074.       2070.       2061.    
        2057.       2059.       2058.       2058.       2057.       2050.       2049.       2042.       2049.       2058.    
        2065.       2062.       2046.       2036.       2036.       2043.       2051.       2052.       2046.    
  27    2117.       2117.       2117.       2117.       2117.       2117.       2117.       2117.       2117.       2117.    
        2117.       2117.       2119.       2125.       2134.       2148.       2154.       2172.       2188.       2203.    
        2226.       2247.       2275.       2286.       2273.       2252.       2235.       2217.       2193.       2175.    
        2179.       2176.       2170.       2159.       2147.       2130.       2112.       2101.       2095.       2088.    
        2080.       2074.       2068.       2068.       2067.       2066.       2058.       2046.       2037.       2026.    
        2019.       2023.       2031.       2043.       2058.       2062.       2064.       2065.       2061.       2056.    
        2052.       2052.       2053.       2057.       2057.       2054.       2052.       2041.       2043.       2048.    
        2052.       2051.       2044.       2033.       2032.       2034.       2038.       2042.       2038.    
  28    2117.       2117.       2117.       2117.       2117.       2117.       2117.       2117.       2119.       2125.    
        2129.       2135.       2146.       2155.       2164.       2181.       2197.       2217.       2229.       2247.    
        2264.       2274.       2283.       2273.       2250.       2229.       2213.       2198.       2179.       2166.    
        2163.       2162.       2154.       2142.       2129.       2113.       2097.       2088.       2080.       2072.    
        2064.       2060.       2056.       2057.       2058.       2058.       2054.       2048.       2039.       2028.    
        2014.       2017.       2023.       2036.       2047.       2052.       2056.       2056.       2053.       2051.    
        2046.       2046.       2046.       2053.       2057.       2057.       2055.       2039.       2036.       2042.    
        2045.       2045.       2042.       2034.       2027.       2028.       2032.       2035.       2036.    
  29    2117.       2117.       2117.       2117.       2117.       2117.       2118.       2134.       2143.       2147.    
        2156.       2165.       2171.       2189.       2203.       2221.       2242.       2268.       2277.       2294.    
        2296.       2277.       2269.       2250.       2225.       2207.       2194.       2181.       2170.       2159.    
        2151.       2147.       2138.       2127.       2115.       2099.       2086.       2076.       2067.       2060.    
        2053.       2047.       2045.       2048.       2048.       2049.       2050.       2045.       2039.       2028.    
        2016.       2009.       2017.       2029.       2038.       2041.       2046.       2045.       2046.       2046.    
        2039.       2039.       2040.       2049.       2057.       2056.       2052.       2042.       2029.       2037.    
        2040.       2040.       2039.       2034.       2024.       2025.       2030.       2037.       2038.    
  30    2117.       2117.       2117.       2117.       2117.       2122.       2147.       2161.       2166.       2173.    
        2186.       2197.       2214.       2231.       2253.       2263.       2284.       2302.       2314.       2312.    
        2283.       2263.       2245.       2223.       2202.       2188.       2177.       2168.       2158.       2150.    
        2146.       2135.       2125.       2117.       2105.       2091.       2076.       2064.       2057.       2048.    
        2042.       2037.       2035.       2038.       2039.       2040.       2043.       2039.       2034.       2027.    
        2014.       2004.       2012.       2026.       2029.       2030.       2034.       2034.       2039.       2040.    
        2034.       2032.       2035.       2044.       2053.       2050.       2045.       2041.       2023.       2027.    
        2036.       2036.       2035.       2028.       2023.       2023.       2029.       2037.       2041.    
  31    2117.       2117.       2117.       2117.       2131.       2155.       2176.       2191.       2194.       2202.    
        2221.       2235.       2262.       2285.       2312.       2313.       2318.       2320.       2318.       2297.    
        2271.       2243.       2219.       2202.       2185.       2174.       2166.       2156.       2147.       2140.    
        2135.       2128.       2114.       2108.       2100.       2085.       2068.       2057.       2048.       2042.    
        2036.       2031.       2029.       2029.       2031.       2033.       2034.       2034.       2029.       2023.    
        2010.       1999.       2007.       2019.       2020.       2020.       2022.       2026.       2033.       2033.    
        2027.       2023.       2030.       2039.       2046.       2044.       2038.       2036.       2025.       2011.    
        2022.       2029.       2030.       2025.       2021.       2022.       2026.       2037.       2040.    
  32    2117.       2117.       2120.       2142.       2163.       2187.       2220.       2234.       2226.       2232.    
        2249.       2277.       2319.       2340.       2350.       2347.       2336.       2318.       2297.       2282.    
        2257.       2229.       2203.       2180.       2170.       2162.       2154.       2146.       2138.       2131.    
        2125.       2120.       2109.       2102.       2094.       2081.       2065.       2051.       2044.       2037.    
        2030.       2025.       2023.       2022.       2023.       2025.       2027.       2027.       2026.       2020.    
        2007.       1997.       1997.       2003.       2006.       2009.       2011.       2018.       2023.       2023.    
        2017.       2013.       2023.       2031.       2039.       2038.       2032.       2030.       2020.       2005.    
        2015.       2025.       2027.       2023.       2019.       2019.       2024.       2029.       2030.    
  33    2117.       2129.       2154.       2173.       2202.       2233.       2288.       2272.       2260.       2271.    
        2284.       2314.       2344.       2361.       2377.       2363.       2326.       2301.       2284.       2270.    
        2248.       2222.       2192.       2168.       2159.       2153.       2144.       2136.       2130.       2123.    
        2117.       2113.       2108.       2100.       2086.       2073.       2060.       2049.       2038.       2039.    
        2037.       2031.       2024.       2019.       2017.       2017.       2017.       2019.       2020.       2015.    
        2007.       1997.       1991.       1991.       1994.       1995.       1999.       2005.       2008.       2007.    
        2004.       2005.       2013.       2022.       2028.       2027.       2026.       2025.       2010.       2003.    
        2015.       2022.       2023.       2021.       2016.       2013.       2017.       2020.       2017.    
  34    2135.       2161.       2191.       2215.       2250.       2283.       2322.       2304.       2303.       2306.    
        2311.       2331.       2357.       2384.       2381.       2352.       2317.       2291.       2277.       2265.    
        2243.       2217.       2192.       2169.       2151.       2143.       2133.       2128.       2122.       2116.    
        2111.       2107.       2099.       2092.       2083.       2064.       2054.       2046.       2049.       2049.    
        2050.       2044.       2033.       2022.       2016.       2011.       2007.       2001.       2008.       2007.    
        2003.       1998.       1991.       1987.       1985.       1984.       1986.       1989.       1992.       1994.    
        1989.       1997.       2003.       2011.       2014.       2011.       2006.       2006.       1986.       1995.    
        2005.       2014.       2016.       2018.       2014.       2009.       2009.       2012.       2010.    
  35    2164.       2192.       2228.       2261.       2305.       2337.       2360.       2344.       2340.       2334.    
        2332.       2345.       2367.       2379.       2363.       2346.       2318.       2281.       2270.       2258.    
        2234.       2214.       2193.       2172.       2153.       2141.       2132.       2124.       2115.       2110.    
        2104.       2099.       2091.       2081.       2067.       2062.       2054.       2054.       2066.       2074.    
        2074.       2065.       2041.       2026.       2019.       2014.       2014.       2006.       1994.       1990.    
        1989.       1988.       1989.       1990.       1982.       1979.       1980.       1979.       1980.       1980.    
        1981.       1989.       1997.       1999.       2000.       2001.       1992.       1986.       1973.       1980.    
        1991.       2003.       2014.       2015.       2014.       2007.       1999.       1998.       2002.    
  36    2196.       2229.       2263.       2308.       2368.       2395.       2399.       2384.       2374.       2368.    
        2353.       2357.       2371.       2362.       2350.       2338.       2312.       2280.       2259.       2245.    
        2229.       2209.       2192.       2174.       2160.       2147.       2134.       2124.       2115.       2107.    
        2098.       2091.       2084.       2077.       2074.       2065.       2057.       2062.       2076.       2079.    
        2079.       2068.       2051.       2036.       2023.       2021.       2019.       2010.       1998.       1991.    
        1988.       1984.       1980.       1982.       1976.       1975.       1975.       1974.       1973.       1973.    
        1976.       1982.       1988.       1988.       1985.       1987.       1979.       1975.       1967.       1968.    
        1975.       1990.       2004.       2007.       2006.       2003.       1993.       1973.       1973.    
  37    2230.       2260.       2300.       2346.       2393.       2445.       2427.       2416.       2408.       2398.    
        2376.       2370.       2367.       2354.       2343.       2329.       2309.       2276.       2258.       2240.    
        2219.       2202.       2184.       2170.       2160.       2147.       2134.       2125.       2120.       2112.    
        2101.       2094.       2089.       2085.       2082.       2072.       2061.       2065.       2075.       2080.    
        2077.       2064.       2051.       2040.       2027.       2028.       2024.       2009.       2000.       1995.    
        1991.       1986.       1983.       1980.       1978.       1975.       1973.       1972.       1972.       1970.    
        1971.       1976.       1978.       1977.       1974.       1969.       1964.       1960.       1959.       1960.    
        1964.       1972.       1979.       1982.       1983.       1981.       1973.       1959.       1950.    
  38    2267.       2310.       2356.       2388.       2423.       2463.       2456.       2449.       2433.       2414.    
        2394.       2373.       2361.       2347.       2336.       2324.       2306.       2278.       2265.       2242.    
        2226.       2212.       2193.       2172.       2166.       2155.       2141.       2130.       2125.       2117.    
        2107.       2103.       2099.       2093.       2090.       2080.       2067.       2067.       2073.       2081.    
        2074.       2058.       2049.       2041.       2035.       2037.       2032.       2017.       2006.       1999.    
        1994.       1989.       1986.       1984.       1982.       1978.       1975.       1974.       1972.       1971.    
        1967.       1963.       1963.       1963.       1963.       1960.       1958.       1955.       1953.       1951.    
        1950.       1953.       1957.       1959.       1962.       1958.       1947.       1938.       1932.    
  39    2314.       2357.       2405.       2436.       2458.       2477.       2474.       2460.       2433.       2413.    
        2389.       2372.       2354.       2342.       2333.       2321.       2304.       2287.       2271.       2257.    
        2233.       2216.       2196.       2181.       2177.       2166.       2147.       2137.       2131.       2120.    
        2115.       2111.       2103.       2097.       2096.       2086.       2072.       2071.       2075.       2084.    
        2080.       2061.       2054.       2045.       2046.       2050.       2047.       2035.       2015.       2004.    
        1999.       1993.       1990.       1989.       1987.       1985.       1982.       1979.       1976.       1974.    
        1973.       1977.       1985.       1991.       1983.       1969.       1962.       1953.       1948.       1946.    
        1942.       1942.       1942.       1944.       1943.       1940.       1935.       1932.       1928.    
  40    2368.       2407.       2437.       2469.       2492.       2497.       2484.       2462.       2433.       2410.    
        2388.       2368.       2355.       2344.       2333.       2323.       2311.       2296.       2281.       2261.    
        2238.       2218.       2202.       2198.       2197.       2177.       2162.       2150.       2138.       2127.    
        2124.       2116.       2110.       2105.       2101.       2091.       2074.       2078.       2087.       2090.    
        2089.       2080.       2063.       2052.       2054.       2064.       2059.       2044.       2023.       2014.    
        2005.       2000.       2000.       1997.       1998.       1999.       1996.       1999.       1994.       1980.    
        1978.       1987.       2001.       2006.       2008.       2005.       1989.       1961.       1954.       1949.    
        1945.       1941.       1938.       1936.       1934.       1933.       1931.       1929.       1928.    
  41    2393.       2452.       2479.       2491.       2520.       2518.       2502.       2467.       2443.       2418.    
        2393.       2373.       2357.       2346.       2340.       2332.       2322.       2309.       2283.       2264.    
        2248.       2228.       2215.       2211.       2207.       2194.       2173.       2159.       2142.       2138.    
        2129.       2121.       2114.       2109.       2104.       2093.       2080.       2090.       2099.       2100.    
        2096.       2090.       2075.       2062.       2060.       2076.       2071.       2054.       2039.       2022.    
        2016.       2012.       2014.       2013.       2012.       2019.       2012.       2017.       2002.       1989.    
        1985.       1996.       2007.       2014.       2017.       2017.       2002.       1975.       1962.       1954.    
        1949.       1944.       1941.       1938.       1938.       1936.       1935.       1935.       1935.    
  42    2399.       2448.       2495.       2524.       2541.       2535.       2523.       2491.       2463.       2432.    
        2399.       2378.       2366.       2356.       2357.       2352.       2345.       2325.       2294.       2272.    
        2254.       2240.       2222.       2208.       2200.       2188.       2170.       2159.       2152.       2143.    
        2133.       2123.       2119.       2114.       2107.       2094.       2090.       2106.       2111.       2108.    
        2105.       2096.       2083.       2075.       2070.       2072.       2082.       2076.       2063.       2035.    
        2031.       2029.       2032.       2034.       2034.       2034.       2030.       2020.       2005.       1995.    
        1993.       2004.       2015.       2021.       2023.       2017.       2003.       1982.       1967.       1959.    
        1952.       1946.       1944.       1943.       1942.       1941.       1941.       1941.       1942.    
  43    2429.       2466.       2510.       2541.       2552.       2551.       2539.       2500.       2469.       2438.    
        2408.       2387.       2382.       2379.       2375.       2369.       2363.       2343.       2316.       2282.    
        2264.       2249.       2231.       2222.       2207.       2196.       2187.       2178.       2163.       2147.    
        2137.       2132.       2125.       2118.       2110.       2096.       2099.       2115.       2120.       2116.    
        2115.       2114.       2094.       2083.       2078.       2080.       2091.       2091.       2082.       2060.    
        2057.       2053.       2055.       2056.       2053.       2046.       2036.       2022.       2013.       2000.    
        1999.       2009.       2020.       2028.       2028.       2020.       2006.       1987.       1971.       1962.    
        1955.       1951.       1947.       1951.       1951.       1950.       1948.       1946.       1950.    
  44    2463.       2497.       2540.       2553.       2556.       2554.       2536.       2503.       2467.       2435.    
        2411.       2398.       2390.       2383.       2374.       2368.       2363.       2356.       2333.       2306.    
        2278.       2250.       2254.       2242.       2227.       2213.       2200.       2189.       2172.       2152.    
        2144.       2139.       2130.       2122.       2111.       2099.       2106.       2125.       2133.       2127.    
        2121.       2122.       2121.       2105.       2090.       2091.       2102.       2102.       2095.       2090.    
        2085.       2080.       2079.       2077.       2068.       2060.       2045.       2023.       2017.       2007.    
        2006.       2011.       2021.       2031.       2031.       2021.       2009.       1994.       1976.       1970.    
        1961.       1955.       1952.       1963.       1961.       1959.       1955.       1952.       1959.    
  45    2507.       2535.       2564.       2555.       2547.       2546.       2529.       2499.       2455.       2429.    
        2407.       2393.       2382.       2370.       2354.       2346.       2345.       2340.       2330.       2308.    
        2274.       2280.       2267.       2251.       2238.       2224.       2207.       2192.       2176.       2158.    
        2150.       2142.       2135.       2126.       2113.       2102.       2115.       2136.       2148.       2142.    
        2131.       2122.       2119.       2114.       2103.       2099.       2112.       2112.       2113.       2114.    
        2111.       2107.       2107.       2101.       2084.       2071.       2050.       2031.       2023.       2016.    
        2010.       2013.       2021.       2029.       2029.       2020.       2010.       1997.       1987.       1978.    
        1963.       1960.       1964.       1977.       1979.       1974.       1967.       1959.       1967.    
  46    2515.       2566.       2575.       2556.       2540.       2533.       2520.       2484.       2447.       2421.    
        2397.       2380.       2366.       2352.       2341.       2336.       2329.       2321.       2306.       2306.    
        2309.       2298.       2278.       2267.       2252.       2231.       2209.       2194.       2181.       2167.    
        2154.       2145.       2137.       2125.       2114.       2106.       2119.       2139.       2153.       2148.    
        2139.       2128.       2120.       2113.       2105.       2103.       2114.       2120.       2127.       2132.    
        2134.       2138.       2134.       2120.       2105.       2082.       2058.       2038.       2031.       2026.    
        2017.       2022.       2025.       2032.       2029.       2017.       2008.       1997.       1988.       1976.    
        1969.       1966.       1969.       1980.       1992.       1996.       1986.       1967.       1976.    
  47    2513.       2556.       2574.       2557.       2539.       2526.       2506.       2476.       2440.       2411.    
        2389.       2366.       2356.       2349.       2340.       2335.       2334.       2332.       2329.       2328.    
        2320.       2308.       2293.       2277.       2258.       2233.       2213.       2201.       2189.       2176.    
        2161.       2148.       2139.       2130.       2121.       2109.       2115.       2131.       2143.       2143.    
        2139.       2136.       2126.       2115.       2106.       2105.       2113.       2122.       2133.       2143.    
        2152.       2160.       2155.       2139.       2119.       2095.       2065.       2047.       2035.       2027.    
        2024.       2029.       2032.       2034.       2029.       2016.       2007.       1997.       1988.       1977.    
        1976.       1972.       1973.       1983.       1994.       2001.       1995.       1973.       1982.    
  48    2513.       2561.       2576.       2562.       2545.       2524.       2495.       2465.       2430.       2406.    
        2377.       2362.       2356.       2350.       2347.       2344.       2350.       2354.       2353.       2351.    
        2333.       2315.       2297.       2278.       2257.       2235.       2217.       2208.       2198.       2185.    
        2169.       2156.       2145.       2139.       2139.       2134.       2118.       2121.       2131.       2137.    
        2140.       2144.       2141.       2130.       2117.       2107.       2111.       2127.       2140.       2153.    
        2169.       2177.       2168.       2156.       2139.       2111.       2080.       2058.       2040.       2031.    
        2034.       2037.       2040.       2037.       2026.       2018.       2009.       2001.       1993.       1986.    
        1982.       1979.       1982.       1987.       1999.       2011.       2001.       1983.       1981.    
  49    2513.       2559.       2578.       2564.       2548.       2527.       2485.       2455.       2426.       2403.    
        2381.       2365.       2364.       2361.       2356.       2361.       2365.       2368.       2370.       2353.    
        2331.       2313.       2296.       2275.       2260.       2241.       2230.       2215.       2203.       2189.    
        2175.       2165.       2153.       2150.       2149.       2148.       2134.       2121.       2125.       2133.    
        2143.       2150.       2153.       2148.       2135.       2117.       2109.       2123.       2139.       2161.    
        2181.       2197.       2188.       2171.       2153.       2126.       2096.       2070.       2052.       2040.    
        2042.       2046.       2048.       2045.       2030.       2021.       2014.       2007.       1999.       1993.    
        1990.       1986.       1991.       1998.       2005.       2013.       2013.       1994.       1988.    
  50    2525.       2564.       2585.       2572.       2555.       2519.       2482.       2451.       2416.       2401.    
        2392.       2375.       2379.       2377.       2377.       2382.       2381.       2373.       2358.       2340.    
        2323.       2307.       2292.       2274.       2261.       2248.       2237.       2226.       2211.       2195.    
        2180.       2171.       2162.       2157.       2154.       2150.       2138.       2127.       2125.       2134.    
        2145.       2154.       2161.       2162.       2156.       2132.       2117.       2118.       2133.       2158.    
        2186.       2206.       2206.       2190.       2167.       2144.       2112.       2088.       2068.       2053.    
        2048.       2054.       2062.       2059.       2042.       2028.       2019.       2012.       2005.       2001.    
        1997.       1993.       2000.       2006.       2012.       2019.       2024.       2014.       2001.    
  51    2533.       2568.       2579.       2572.       2548.       2507.       2477.       2445.       2408.       2397.    
        2387.       2392.       2403.       2401.       2406.       2406.       2390.       2363.       2344.       2330.    
        2318.       2307.       2294.       2281.       2272.       2256.       2240.       2228.       2217.       2201.    
        2187.       2176.       2167.       2161.       2155.       2149.       2137.       2129.       2128.       2134.    
        2145.       2156.       2164.       2169.       2168.       2150.       2125.       2117.       2122.       2149.    
        2179.       2205.       2222.       2207.       2181.       2156.       2128.       2102.       2081.       2071.    
        2057.       2061.       2070.       2073.       2060.       2039.       2024.       2018.       2012.       2014.    
        2009.       1998.       2005.       2014.       2020.       2026.       2032.       2021.       2011.    
  52    2555.       2573.       2578.       2565.       2536.       2495.       2465.       2438.       2411.       2397.    
        2403.       2411.       2420.       2426.       2428.       2422.       2408.       2382.       2364.       2343.    
        2325.       2313.       2303.       2290.       2279.       2264.       2245.       2230.       2217.       2206.    
        2194.       2180.       2170.       2162.       2154.       2146.       2137.       2129.       2130.       2134.    
        2144.       2155.       2166.       2172.       2177.       2169.       2146.       2125.       2121.       2136.    
        2169.       2201.       2221.       2218.       2198.       2171.       2138.       2114.       2094.       2081.    
        2071.       2072.       2077.       2079.       2074.       2053.       2034.       2026.       2027.       2027.    
        2023.       2008.       2010.       2024.       2031.       2037.       2048.       2042.       2025.    
  53    2582.       2586.       2584.       2564.       2526.       2491.       2462.       2429.       2415.       2409.    
        2419.       2426.       2438.       2444.       2445.       2442.       2432.       2412.       2384.       2363.    
        2344.       2325.       2313.       2302.       2293.       2277.       2255.       2236.       2218.       2205.    
        2194.       2183.       2172.       2163.       2154.       2145.       2139.       2132.       2132.       2138.    
        2148.       2162.       2172.       2183.       2189.       2188.       2167.       2141.       2134.       2136.    
        2164.       2193.       2219.       2225.       2206.       2177.       2150.       2124.       2103.       2090.    
        2085.       2083.       2083.       2083.       2076.       2059.       2043.       2036.       2037.       2039.    
        2036.       2025.       2017.       2033.       2050.       2053.       2062.       2060.       2038.    
  54    2604.       2599.       2587.       2556.       2513.       2486.       2469.       2452.       2429.       2429.    
        2433.       2440.       2452.       2457.       2459.       2465.       2460.       2433.       2409.       2388.    
        2361.       2341.       2327.       2315.       2306.       2289.       2265.       2245.       2225.       2206.    
        2192.       2183.       2171.       2162.       2153.       2145.       2141.       2135.       2137.       2147.    
        2161.       2173.       2190.       2202.       2213.       2213.       2188.       2161.       2152.       2144.    
        2159.       2190.       2216.       2228.       2215.       2184.       2159.       2137.       2114.       2100.    
        2095.       2096.       2093.       2090.       2086.       2068.       2053.       2046.       2050.       2053.    
        2054.       2042.       2029.       2037.       2053.       2061.       2066.       2066.       2058.    
  55    2618.       2614.       2586.       2557.       2533.       2508.       2483.       2465.       2441.       2447.    
        2445.       2456.       2464.       2469.       2473.       2479.       2481.       2453.       2428.       2407.    
        2380.       2357.       2339.       2325.       2313.       2297.       2275.       2254.       2232.       2209.    
        2194.       2182.       2171.       2161.       2153.       2146.       2143.       2138.       2144.       2157.    
        2172.       2189.       2207.       2223.       2235.       2236.       2205.       2180.       2166.       2159.    
        2165.       2187.       2212.       2232.       2225.       2194.       2169.       2153.       2134.       2112.    
        2108.       2106.       2104.       2098.       2091.       2078.       2067.       2058.       2062.       2067.    
        2068.       2066.       2041.       2048.       2058.       2065.       2072.       2072.       2071.    
  56    2628.       2609.       2575.       2545.       2535.       2525.       2504.       2475.       2466.       2456.    
        2453.       2469.       2478.       2479.       2484.       2492.       2493.       2471.       2450.       2428.    
        2405.       2378.       2354.       2337.       2320.       2306.       2285.       2263.       2238.       2212.    
        2199.       2186.       2172.       2161.       2155.       2150.       2146.       2143.       2150.       2164.    
        2182.       2201.       2222.       2239.       2254.       2254.       2219.       2198.       2182.       2175.    
        2170.       2183.       2211.       2234.       2232.       2202.       2182.       2164.       2146.       2128.    
        2118.       2119.       2118.       2108.       2096.       2086.       2076.       2070.       2072.       2080.    
        2085.       2080.       2052.       2057.       2069.       2075.       2076.       2078.       2078.    
  57    2638.       2599.       2549.       2534.       2537.       2532.       2507.       2508.       2481.       2467.    
        2482.       2493.       2494.       2492.       2498.       2505.       2506.       2491.       2474.       2450.    
        2423.       2401.       2369.       2350.       2330.       2313.       2295.       2273.       2243.       2221.    
        2203.       2187.       2174.       2163.       2156.       2151.       2147.       2148.       2155.       2167.    
        2182.       2202.       2226.       2241.       2256.       2263.       2242.       2214.       2198.       2189.    
        2181.       2189.       2211.       2238.       2245.       2215.       2195.       2177.       2161.       2146.    
        2132.       2137.       2135.       2122.       2106.       2096.       2088.       2080.       2081.       2088.    
        2095.       2090.       2063.       2070.       2075.       2079.       2081.       2083.       2085.    
  58    2641.       2597.       2553.       2535.       2525.       2517.       2530.       2526.       2492.       2494.    
        2504.       2513.       2514.       2505.       2510.       2516.       2520.       2507.       2485.       2461.    
        2435.       2413.       2389.       2363.       2343.       2323.       2305.       2280.       2252.       2227.    
        2210.       2192.       2178.       2167.       2158.       2153.       2150.       2150.       2156.       2165.    
        2178.       2197.       2216.       2233.       2254.       2266.       2271.       2237.       2218.       2206.    
        2198.       2198.       2215.       2242.       2254.       2230.       2210.       2193.       2177.       2160.    
        2149.       2153.       2150.       2138.       2122.       2109.       2099.       2093.       2093.       2098.    
        2095.       2087.       2074.       2081.       2083.       2084.       2086.       2092.       2096.    
  59    2648.       2611.       2564.       2542.       2531.       2523.       2548.       2546.       2534.       2520.    
        2526.       2533.       2530.       2524.       2524.       2526.       2534.       2519.       2496.       2472.    
        2442.       2422.       2400.       2373.       2352.       2333.       2311.       2285.       2257.       2235.    
        2214.       2198.       2181.       2170.       2160.       2155.       2151.       2152.       2158.       2165.    
        2178.       2195.       2215.       2233.       2252.       2270.       2277.       2263.       2236.       2224.    
        2215.       2212.       2219.       2246.       2260.       2245.       2225.       2211.       2196.       2179.    
        2166.       2170.       2164.       2152.       2136.       2119.       2113.       2105.       2107.       2106.    
        2096.       2087.       2085.       2089.       2088.       2090.       2096.       2103.       2107.    
  60    2637.       2632.       2600.       2575.       2565.       2550.       2575.       2578.       2573.       2560.    
        2560.       2553.       2541.       2534.       2531.       2536.       2543.       2529.       2506.       2479.    
        2453.       2428.       2404.       2388.       2372.       2346.       2319.       2290.       2267.       2242.    
        2217.       2203.       2187.       2173.       2164.       2157.       2153.       2154.       2158.       2166.    
        2177.       2196.       2215.       2232.       2255.       2278.       2288.       2280.       2259.       2238.    
        2229.       2226.       2225.       2245.       2262.       2256.       2241.       2228.       2211.       2198.    
        2188.       2194.       2188.       2170.       2152.       2135.       2128.       2122.       2120.       2111.    
        2098.       2091.       2093.       2096.       2095.       2099.       2107.       2112.       2115.    
  61    2614.       2626.       2629.       2621.       2602.       2599.       2598.       2594.       2603.       2605.    
        2588.       2575.       2550.       2530.       2514.       2527.       2533.       2536.       2509.       2484.    
        2458.       2430.       2408.       2390.       2382.       2350.       2323.       2297.       2273.       2245.    
        2225.       2211.       2190.       2177.       2168.       2159.       2156.       2155.       2159.       2166.    
        2178.       2194.       2214.       2234.       2256.       2282.       2303.       2299.       2276.       2256.    
        2241.       2235.       2236.       2244.       2262.       2266.       2258.       2245.       2228.       2215.    
        2205.       2211.       2211.       2189.       2170.       2154.       2142.       2133.       2127.       2112.    
        2103.       2097.       2101.       2103.       2103.       2110.       2116.       2119.       2122.    
  62    2586.       2600.       2623.       2626.       2614.       2601.       2597.       2594.       2604.       2619.    
        2600.       2562.       2524.       2493.       2474.       2479.       2505.       2517.       2509.       2487.    
        2461.       2433.       2407.       2392.       2377.       2349.       2328.       2303.       2276.       2251.    
        2230.       2213.       2195.       2181.       2171.       2163.       2159.       2157.       2159.       2167.    
        2178.       2193.       2214.       2232.       2253.       2280.       2306.       2313.       2301.       2273.    
        2257.       2247.       2246.       2248.       2260.       2274.       2274.       2263.       2249.       2235.    
        2219.       2229.       2226.       2210.       2189.       2172.       2158.       2142.       2127.       2116.    
        2107.       2106.       2109.       2108.       2112.       2117.       2123.       2127.       2130.    
  63    2552.       2587.       2612.       2622.       2608.       2582.       2581.       2575.       2586.       2606.    
        2585.       2541.       2500.       2459.       2437.       2437.       2460.       2467.       2485.       2489.    
        2464.       2429.       2407.       2391.       2377.       2352.       2331.       2307.       2283.       2253.    
        2233.       2218.       2203.       2184.       2173.       2166.       2162.       2159.       2162.       2168.    
        2177.       2192.       2211.       2229.       2252.       2272.       2298.       2321.       2318.       2298.    
        2271.       2261.       2256.       2255.       2265.       2278.       2289.       2283.       2272.       2264.    
        2252.       2250.       2247.       2229.       2211.       2187.       2167.       2151.       2135.       2120.    
        2112.       2113.       2114.       2115.       2118.       2124.       2129.       2134.       2138.    
  64    2516.       2548.       2583.       2602.       2609.       2572.       2542.       2532.       2548.       2588.    
        2571.       2527.       2480.       2433.       2397.       2397.       2408.       2417.       2458.       2475.    
        2461.       2427.       2401.       2385.       2379.       2359.       2337.       2314.       2291.       2259.    
        2240.       2221.       2208.       2193.       2176.       2168.       2164.       2162.       2163.       2167.    
        2177.       2189.       2208.       2226.       2247.       2270.       2294.       2316.       2328.       2320.    
        2297.       2281.       2276.       2268.       2270.       2281.       2294.       2302.       2298.       2287.    
        2278.       2274.       2265.       2251.       2230.       2201.       2173.       2155.       2139.       2125.    
        2119.       2119.       2120.       2120.       2123.       2128.       2135.       2142.       2147.    
  65    2459.       2505.       2549.       2580.       2564.       2551.       2512.       2483.       2506.       2534.    
        2563.       2511.       2463.       2407.       2368.       2348.       2353.       2372.       2407.       2435.    
        2455.       2421.       2378.       2359.       2368.       2360.       2339.       2315.       2296.       2267.    
        2239.       2217.       2210.       2197.       2184.       2171.       2166.       2164.       2164.       2168.    
        2175.       2188.       2203.       2220.       2242.       2263.       2286.       2315.       2331.       2331.    
        2320.       2310.       2305.       2289.       2277.       2282.       2295.       2310.       2316.       2308.    
        2301.       2292.       2278.       2262.       2240.       2211.       2181.       2157.       2144.       2131.    
        2128.       2126.       2127.       2127.       2127.       2133.       2139.       2146.       2151.    
  66    2415.       2457.       2502.       2510.       2493.       2493.       2464.       2426.       2453.       2482.    
        2519.       2515.       2448.       2396.       2352.       2312.       2302.       2333.       2360.       2393.    
        2423.       2401.       2361.       2327.       2320.       2326.       2330.       2318.       2293.       2269.    
        2242.       2207.       2190.       2193.       2187.       2176.       2170.       2168.       2164.       2167.    
        2174.       2185.       2198.       2215.       2233.       2254.       2277.       2299.       2316.       2333.    
        2328.       2325.       2324.       2307.       2292.       2288.       2298.       2315.       2329.       2326.    
        2318.       2304.       2289.       2268.       2246.       2215.       2184.       2163.       2151.       2143.    
        2141.       2136.       2135.       2132.       2130.       2134.       2141.       2147.       2155.    
  67    2375.       2416.       2443.       2450.       2439.       2424.       2402.       2377.       2404.       2431.    
        2471.       2484.       2439.       2385.       2331.       2288.       2258.       2285.       2316.       2348.    
        2368.       2360.       2334.       2286.       2263.       2269.       2283.       2296.       2284.       2270.    
        2227.       2190.       2166.       2168.       2176.       2178.       2173.       2171.       2164.       2164.    
        2170.       2178.       2191.       2205.       2222.       2241.       2261.       2278.       2297.       2310.    
        2320.       2322.       2332.       2322.       2304.       2296.       2301.       2315.       2334.       2339.    
        2330.       2317.       2292.       2272.       2250.       2220.       2193.       2168.       2159.       2154.    
        2146.       2141.       2136.       2132.       2131.       2135.       2141.       2148.       2158.    
  68    2343.       2386.       2380.       2393.       2396.       2369.       2349.       2328.       2356.       2382.    
        2414.       2423.       2391.       2353.       2303.       2255.       2219.       2243.       2272.       2301.    
        2308.       2290.       2303.       2269.       2205.       2214.       2218.       2235.       2238.       2212.    
        2203.       2163.       2136.       2138.       2145.       2154.       2161.       2161.       2160.       2159.    
        2160.       2169.       2179.       2191.       2211.       2224.       2242.       2261.       2275.       2286.    
        2300.       2316.       2330.       2330.       2314.       2304.       2301.       2311.       2327.       2347.    
        2336.       2322.       2300.       2278.       2256.       2226.       2200.       2179.       2169.       2158.    
        2148.       2140.       2133.       2131.       2130.       2135.       2140.       2147.       2152.    
  69    2318.       2343.       2319.       2338.       2333.       2319.       2305.       2280.       2311.       2339.    
        2352.       2371.       2346.       2313.       2270.       2224.       2190.       2201.       2224.       2249.    
        2240.       2221.       2227.       2254.       2168.       2154.       2155.       2161.       2167.       2148.    
        2156.       2141.       2097.       2089.       2103.       2098.       2126.       2138.       2136.       2136.    
        2139.       2157.       2165.       2175.       2188.       2199.       2218.       2236.       2254.       2269.    
        2287.       2308.       2324.       2336.       2320.       2306.       2300.       2308.       2319.       2337.    
        2349.       2331.       2310.       2288.       2265.       2237.       2212.       2193.       2176.       2159.    
        2147.       2136.       2129.       2125.       2128.       2134.       2137.       2141.       2142.    
  70    2269.       2289.       2276.       2286.       2280.       2270.       2256.       2241.       2266.       2278.    
        2292.       2310.       2302.       2259.       2229.       2197.       2155.       2157.       2179.       2185.    
        2169.       2174.       2172.       2148.       2120.       2092.       2096.       2103.       2101.       2087.    
        2102.       2094.       2064.       2046.       2057.       2058.       2082.       2093.       2100.       2099.    
        2121.       2136.       2143.       2152.       2165.       2172.       2185.       2208.       2228.       2249.    
        2267.       2291.       2314.       2337.       2321.       2302.       2293.       2303.       2313.       2327.    
        2341.       2345.       2324.       2300.       2278.       2247.       2227.       2207.       2185.       2164.    
        2146.       2134.       2121.       2120.       2126.       2130.       2127.       2128.       2127.    
  71    2227.       2236.       2238.       2242.       2235.       2228.       2218.       2207.       2219.       2223.    
        2235.       2242.       2243.       2218.       2188.       2164.       2123.       2117.       2133.       2134.    
        2122.       2126.       2108.       2093.       2074.       2043.       2044.       2054.       2055.       2036.    
        2057.       2044.       2022.       2014.       2017.       2021.       2035.       2044.       2054.       2054.    
        2085.       2105.       2102.       2114.       2130.       2144.       2157.       2179.       2202.       2224.    
        2242.       2270.       2300.       2320.       2315.       2296.       2289.       2297.       2302.       2314.    
        2327.       2336.       2339.       2313.       2291.       2255.       2242.       2221.       2199.       2171.    
        2149.       2129.       2115.       2116.       2124.       2124.       2119.       2117.       2112.    



                       INITIAL HEAD FOR LAYER   2
 READING ON UNIT    8 WITH FORMAT: (FREE)              

            1           2           3           4           5           6           7           8           9          10
           11          12          13          14          15          16          17          18          19          20
           21          22          23          24          25          26          27          28          29          30
           31          32          33          34          35          36          37          38          39          40
           41          42          43          44          45          46          47          48          49          50
           51          52          53          54          55          56          57          58          59          60
           61          62          63          64          65          66          67          68          69          70
           71          72          73          74          75          76          77          78          79
 ........................................................................................................................
   1    2322.       2303.       2280.       2256.       2234.       2234.       2244.       2253.       2239.       2220.    
        2204.       2191.       2173.       2161.       2156.       2155.       2155.       2156.       2157.       2157.    
        2166.       2177.       2182.       2176.       2164.       2152.       2145.       2147.       2149.       2148.    
        2146.       2135.       2106.       2095.       2105.       2123.       2148.       2161.       2151.       2139.    
        2133.       2130.       2127.       2124.       2122.       2120.       2120.       2130.       2144.       2154.    
        2164.       2173.       2163.       2141.       2133.       2130.       2125.       2116.       2109.       2107.    
        2104.       2106.       2109.       2117.       2126.       2132.       2125.       2111.       2095.       2085.    
        2074.       2066.       2059.       2054.       2051.       2052.       2061.       2057.       2043.    
   2    2339.       2319.       2292.       2270.       2248.       2243.       2256.       2264.       2249.       2234.    
        2220.       2204.       2192.       2175.       2161.       2157.       2157.       2160.       2167.       2174.    
        2187.       2190.       2189.       2171.       2154.       2146.       2144.       2146.       2149.       2152.    
        2149.       2133.       2107.       2101.       2110.       2127.       2142.       2163.       2160.       2149.    
        2136.       2131.       2128.       2124.       2121.       2120.       2121.       2130.       2146.       2158.    
        2167.       2171.       2157.       2132.       2123.       2123.       2121.       2114.       2111.       2110.    
        2109.       2108.       2110.       2119.       2127.       2135.       2131.       2118.       2102.       2090.    
        2081.       2071.       2062.       2055.       2051.       2052.       2056.       2061.       2060.    
   3    2343.       2324.       2304.       2285.       2261.       2254.       2265.       2279.       2262.       2246.    
        2232.       2219.       2204.       2193.       2175.       2164.       2165.       2173.       2183.       2196.    
        2196.       2197.       2181.       2162.       2145.       2143.       2143.       2145.       2148.       2150.    
        2144.       2121.       2109.       2102.       2112.       2128.       2145.       2163.       2168.       2155.    
        2141.       2133.       2129.       2126.       2123.       2120.       2121.       2132.       2148.       2157.    
        2163.       2164.       2149.       2122.       2121.       2120.       2118.       2114.       2112.       2114.    
        2113.       2111.       2112.       2120.       2128.       2131.       2125.       2114.       2102.       2093.    
        2083.       2072.       2063.       2052.       2047.       2047.       2053.       2062.       2059.    
   4    2344.       2329.       2310.       2293.       2282.       2269.       2272.       2285.       2275.       2258.    
        2242.       2227.       2215.       2200.       2190.       2174.       2174.       2181.       2188.       2192.    
        2196.       2185.       2167.       2150.       2144.       2141.       2142.       2143.       2143.       2141.    
        2128.       2118.       2110.       2108.       2117.       2126.       2142.       2158.       2171.       2159.    
        2147.       2134.       2131.       2129.       2124.       2122.       2125.       2135.       2145.       2152.    
        2158.       2157.       2138.       2121.       2120.       2118.       2116.       2114.       2114.       2119.    
        2119.       2116.       2116.       2121.       2127.       2128.       2121.       2112.       2101.       2093.    
        2088.       2078.       2065.       2050.       2045.       2042.       2045.       2047.       2035.    
   5    2346.       2332.       2318.       2307.       2303.       2288.       2278.       2285.       2282.       2267.    
        2248.       2234.       2220.       2213.       2202.       2183.       2181.       2181.       2184.       2184.    
        2180.       2167.       2147.       2140.       2135.       2140.       2139.       2138.       2137.       2133.    
        2124.       2117.       2110.       2115.       2123.       2127.       2136.       2153.       2172.       2162.    
        2152.       2141.       2135.       2133.       2129.       2126.       2128.       2134.       2142.       2149.    
        2154.       2151.       2131.       2120.       2118.       2118.       2116.       2116.       2119.       2123.    
        2124.       2122.       2119.       2122.       2126.       2126.       2120.       2110.       2099.       2096.    
        2091.       2080.       2068.       2056.       2048.       2040.       2035.       2029.       2017.    
   6    2340.       2333.       2326.       2321.       2317.       2302.       2289.       2288.       2284.       2273.    
        2255.       2236.       2230.       2226.       2212.       2198.       2189.       2187.       2178.       2169.    
        2164.       2148.       2137.       2132.       2137.       2137.       2137.       2135.       2133.       2123.    
        2118.       2113.       2113.       2119.       2125.       2131.       2141.       2153.       2170.       2167.    
        2161.       2151.       2141.       2135.       2133.       2129.       2132.       2136.       2142.       2148.    
        2152.       2149.       2132.       2121.       2119.       2116.       2114.       2116.       2120.       2123.    
        2125.       2123.       2120.       2122.       2124.       2125.       2122.       2113.       2108.       2102.    
        2090.       2075.       2068.       2064.       2064.       2053.       2035.       2028.       2017.    
   7    2340.       2334.       2328.       2329.       2318.       2305.       2293.       2289.       2285.       2277.    
        2262.       2243.       2238.       2239.       2235.       2214.       2200.       2195.       2171.       2161.    
        2151.       2139.       2132.       2126.       2132.       2134.       2134.       2131.       2126.       2119.    
        2115.       2113.       2118.       2123.       2127.       2135.       2143.       2155.       2171.       2169.    
        2164.       2156.       2145.       2141.       2139.       2133.       2134.       2138.       2145.       2149.    
        2155.       2151.       2136.       2132.       2120.       2113.       2111.       2114.       2119.       2122.    
        2126.       2124.       2121.       2119.       2122.       2123.       2122.       2118.       2113.       2108.    
        2099.       2077.       2071.       2072.       2071.       2062.       2053.       2040.       2030.    
   8    2340.       2336.       2333.       2336.       2325.       2310.       2297.       2291.       2285.       2278.    
        2261.       2248.       2245.       2246.       2240.       2226.       2208.       2193.       2172.       2157.    
        2144.       2135.       2129.       2124.       2122.       2122.       2126.       2126.       2122.       2118.    
        2114.       2117.       2123.       2126.       2131.       2136.       2147.       2160.       2171.       2170.    
        2166.       2162.       2151.       2148.       2149.       2138.       2137.       2143.       2150.       2155.    
        2160.       2158.       2146.       2136.       2120.       2109.       2109.       2111.       2117.       2123.    
        2126.       2125.       2122.       2117.       2116.       2117.       2117.       2118.       2117.       2120.    
        2113.       2094.       2085.       2084.       2081.       2077.       2074.       2060.       2036.    
   9    2341.       2338.       2335.       2343.       2330.       2314.       2301.       2293.       2285.       2280.    
        2267.       2256.       2254.       2248.       2240.       2229.       2210.       2194.       2174.       2159.    
        2148.       2135.       2125.       2122.       2121.       2120.       2120.       2120.       2119.       2116.    
        2115.       2119.       2125.       2131.       2135.       2138.       2151.       2169.       2177.       2175.    
        2170.       2166.       2158.       2156.       2153.       2144.       2143.       2146.       2151.       2156.    
        2160.       2152.       2141.       2132.       2121.       2110.       2106.       2108.       2110.       2119.    
        2125.       2125.       2122.       2116.       2110.       2108.       2111.       2116.       2120.       2125.    
        2125.       2118.       2115.       2113.       2103.       2074.       2065.       2049.       2031.    
  10    2342.       2339.       2334.       2336.       2330.       2315.       2302.       2293.       2289.       2282.    
        2267.       2265.       2259.       2251.       2243.       2230.       2212.       2195.       2177.       2163.    
        2148.       2132.       2122.       2121.       2120.       2119.       2119.       2118.       2117.       2115.    
        2116.       2120.       2125.       2132.       2138.       2143.       2152.       2175.       2185.       2182.    
        2179.       2172.       2167.       2165.       2157.       2147.       2148.       2150.       2151.       2151.    
        2154.       2147.       2140.       2130.       2117.       2111.       2106.       2107.       2108.       2115.    
        2120.       2121.       2119.       2116.       2111.       2099.       2106.       2115.       2122.       2127.    
        2130.       2129.       2128.       2120.       2100.       2070.       2056.       2044.       2030.    
  11    2341.       2337.       2333.       2329.       2322.       2316.       2310.       2301.       2293.       2290.    
        2279.       2273.       2265.       2257.       2250.       2231.       2215.       2197.       2177.       2161.    
        2141.       2130.       2122.       2122.       2122.       2121.       2120.       2118.       2116.       2116.    
        2117.       2120.       2126.       2134.       2141.       2146.       2158.       2171.       2183.       2185.    
        2186.       2181.       2182.       2172.       2160.       2156.       2156.       2152.       2150.       2148.    
        2146.       2143.       2139.       2130.       2118.       2111.       2106.       2105.       2105.       2108.    
        2112.       2112.       2113.       2112.       2107.       2097.       2104.       2112.       2119.       2125.    
        2130.       2131.       2128.       2122.       2100.       2072.       2057.       2044.       2035.    
  12    2341.       2339.       2337.       2333.       2329.       2329.       2322.       2314.       2305.       2302.    
        2292.       2280.       2275.       2271.       2254.       2232.       2219.       2195.       2167.       2148.    
        2135.       2123.       2121.       2122.       2122.       2123.       2122.       2120.       2117.       2117.    
        2117.       2120.       2128.       2137.       2147.       2154.       2166.       2183.       2188.       2184.    
        2186.       2187.       2181.       2172.       2167.       2163.       2160.       2156.       2152.       2146.    
        2143.       2137.       2136.       2135.       2121.       2112.       2108.       2103.       2101.       2102.    
        2104.       2106.       2107.       2106.       2101.       2094.       2097.       2105.       2112.       2123.    
        2128.       2128.       2125.       2123.       2113.       2090.       2063.       2053.       2047.    
  13    2343.       2341.       2341.       2340.       2337.       2335.       2330.       2326.       2322.       2320.    
        2309.       2296.       2277.       2254.       2238.       2229.       2208.       2179.       2150.       2137.    
        2126.       2120.       2117.       2117.       2118.       2122.       2119.       2118.       2118.       2117.    
        2118.       2121.       2131.       2145.       2158.       2173.       2181.       2189.       2188.       2185.    
        2184.       2182.       2171.       2167.       2165.       2164.       2161.       2157.       2150.       2144.    
        2139.       2134.       2131.       2128.       2122.       2114.       2108.       2102.       2098.       2096.    
        2097.       2098.       2103.       2101.       2096.       2088.       2089.       2096.       2108.       2121.    
        2123.       2124.       2121.       2117.       2110.       2098.       2079.       2061.       2048.    
  14    2355.       2346.       2346.       2345.       2344.       2343.       2342.       2335.       2322.       2308.    
        2283.       2259.       2237.       2223.       2217.       2206.       2185.       2164.       2135.       2122.    
        2118.       2117.       2117.       2117.       2117.       2117.       2117.       2117.       2117.       2118.    
        2118.       2122.       2142.       2156.       2172.       2184.       2194.       2193.       2188.       2178.    
        2172.       2168.       2158.       2157.       2157.       2161.       2160.       2155.       2148.       2142.    
        2137.       2132.       2128.       2124.       2120.       2116.       2110.       2104.       2098.       2092.    
        2092.       2094.       2097.       2097.       2089.       2081.       2080.       2087.       2098.       2113.    
        2116.       2118.       2118.       2114.       2108.       2102.       2085.       2064.       2052.    
  15    2370.       2352.       2345.       2345.       2335.       2329.       2321.       2315.       2294.       2264.    
        2241.       2213.       2192.       2190.       2185.       2171.       2152.       2133.       2118.       2117.    
        2117.       2117.       2117.       2117.       2117.       2117.       2117.       2117.       2117.       2117.    
        2118.       2127.       2149.       2166.       2187.       2196.       2196.       2197.       2186.       2178.    
        2170.       2153.       2145.       2142.       2143.       2150.       2152.       2151.       2146.       2140.    
        2134.       2129.       2124.       2120.       2116.       2113.       2111.       2106.       2100.       2091.    
        2087.       2090.       2092.       2090.       2087.       2078.       2073.       2078.       2085.       2097.    
        2105.       2110.       2114.       2114.       2113.       2109.       2095.       2073.       2053.    
  16    2350.       2330.       2311.       2306.       2293.       2282.       2261.       2269.       2241.       2213.    
        2195.       2169.       2154.       2153.       2142.       2128.       2118.       2117.       2117.       2117.    
        2117.       2117.       2117.       2117.       2117.       2117.       2117.       2117.       2117.       2117.    
        2122.       2143.       2162.       2186.       2203.       2205.       2207.       2195.       2186.       2175.    
        2164.       2155.       2150.       2146.       2131.       2136.       2137.       2140.       2139.       2136.    
        2132.       2125.       2120.       2115.       2111.       2109.       2107.       2105.       2101.       2097.    
        2083.       2086.       2089.       2088.       2086.       2078.       2070.       2070.       2072.       2084.    
        2092.       2102.       2109.       2110.       2110.       2105.       2098.       2076.       2056.    
  17    2301.       2283.       2267.       2257.       2242.       2227.       2213.       2203.       2183.       2168.    
        2145.       2130.       2121.       2117.       2117.       2117.       2117.       2117.       2117.       2117.    
        2117.       2117.       2117.       2117.       2117.       2117.       2117.       2117.       2117.       2119.    
        2144.       2166.       2191.       2205.       2211.       2208.       2202.       2186.       2179.       2170.    
        2158.       2155.       2152.       2148.       2135.       2124.       2122.       2122.       2129.       2129.    
        2125.       2119.       2113.       2110.       2108.       2106.       2105.       2103.       2100.       2097.    
        2083.       2082.       2087.       2085.       2078.       2067.       2065.       2062.       2063.       2069.    
        2077.       2093.       2101.       2103.       2102.       2098.       2091.       2077.       2055.    
  18    2256.       2235.       2222.       2207.       2192.       2183.       2164.       2150.       2133.       2122.    
        2117.       2117.       2117.       2117.       2117.       2117.       2117.       2117.       2117.       2117.    
        2117.       2117.       2117.       2117.       2117.       2117.       2117.       2117.       2127.       2150.    
        2176.       2199.       2213.       2221.       2214.       2207.       2194.       2182.       2174.       2167.    
        2158.       2155.       2150.       2146.       2133.       2126.       2117.       2105.       2115.       2120.    
        2117.       2111.       2108.       2104.       2102.       2102.       2102.       2101.       2099.       2093.    
        2086.       2073.       2078.       2075.       2067.       2060.       2060.       2057.       2057.       2056.    
        2066.       2081.       2091.       2096.       2097.       2091.       2083.       2074.       2052.    
  19    2212.       2190.       2180.       2166.       2152.       2138.       2122.       2117.       2117.       2117.    
        2117.       2117.       2117.       2117.       2117.       2117.       2117.       2117.       2117.       2117.    
        2117.       2117.       2117.       2117.       2117.       2117.       2118.       2129.       2154.       2185.    
        2209.       2214.       2230.       2220.       2208.       2210.       2195.       2184.       2181.       2172.    
        2163.       2157.       2151.       2147.       2139.       2133.       2117.       2092.       2099.       2108.    
        2109.       2103.       2102.       2099.       2097.       2098.       2100.       2100.       2098.       2089.    
        2081.       2071.       2063.       2063.       2060.       2055.       2057.       2056.       2056.       2056.    
        2058.       2070.       2084.       2096.       2100.       2091.       2082.       2071.       2052.    
  20    2178.       2163.       2147.       2134.       2124.       2117.       2117.       2117.       2117.       2117.    
        2117.       2117.       2117.       2117.       2117.       2117.       2117.       2117.       2117.       2117.    
        2117.       2117.       2117.       2117.       2117.       2120.       2134.       2155.       2184.       2196.    
        2208.       2230.       2224.       2219.       2227.       2228.       2210.       2199.       2187.       2179.    
        2172.       2159.       2149.       2146.       2138.       2132.       2113.       2087.       2089.       2095.    
        2099.       2095.       2095.       2093.       2093.       2094.       2098.       2097.       2092.       2084.    
        2077.       2069.       2060.       2054.       2055.       2053.       2056.       2059.       2060.       2062.    
        2060.       2067.       2083.       2110.       2114.       2097.       2082.       2070.       2051.    
  21    2154.       2141.       2125.       2118.       2117.       2117.       2117.       2117.       2117.       2117.    
        2117.       2117.       2117.       2117.       2117.       2117.       2117.       2117.       2117.       2117.    
        2117.       2117.       2117.       2117.       2119.       2140.       2159.       2177.       2194.       2198.    
        2231.       2229.       2230.       2239.       2243.       2230.       2210.       2194.       2179.       2168.    
        2158.       2148.       2139.       2131.       2124.       2116.       2100.       2077.       2074.       2081.    
        2087.       2085.       2085.       2085.       2088.       2091.       2095.       2092.       2085.       2080.    
        2075.       2067.       2060.       2051.       2051.       2052.       2061.       2065.       2073.       2073.    
        2070.       2070.       2082.       2097.       2107.       2105.       2086.       2073.       2056.    
  22    2136.       2120.       2117.       2117.       2117.       2117.       2117.       2117.       2117.       2117.    
        2117.       2117.       2117.       2117.       2117.       2117.       2117.       2117.       2117.       2117.    
        2117.       2117.       2117.       2125.       2146.       2167.       2187.       2206.       2221.       2235.    
        2235.       2237.       2248.       2245.       2232.       2215.       2199.       2183.       2171.       2162.    
        2151.       2138.       2126.       2114.       2100.       2092.       2075.       2065.       2060.       2068.    
        2077.       2077.       2076.       2080.       2085.       2088.       2091.       2087.       2081.       2075.    
        2071.       2066.       2061.       2051.       2048.       2051.       2058.       2065.       2070.       2075.    
        2080.       2077.       2077.       2087.       2100.       2108.       2099.       2076.       2063.    
  23    2118.       2117.       2117.       2117.       2117.       2117.       2117.       2117.       2117.       2117.    
        2117.       2117.       2117.       2117.       2117.       2117.       2117.       2117.       2117.       2117.    
        2117.       2117.       2132.       2150.       2175.       2197.       2217.       2241.       2239.       2244.    
        2254.       2257.       2243.       2230.       2216.       2201.       2185.       2173.       2160.       2150.    
        2144.       2136.       2123.       2111.       2092.       2073.       2062.       2055.       2049.       2060.    
        2067.       2067.       2069.       2074.       2082.       2085.       2089.       2088.       2079.       2071.    
        2069.       2065.       2061.       2050.       2045.       2047.       2053.       2062.       2070.       2077.    
        2086.       2078.       2075.       2081.       2094.       2104.       2098.       2079.       2068.    
  24    2117.       2117.       2117.       2117.       2117.       2117.       2117.       2117.       2117.       2117.    
        2117.       2117.       2117.       2117.       2117.       2117.       2117.       2117.       2117.       2117.    
        2124.       2143.       2165.       2185.       2205.       2232.       2260.       2257.       2253.       2258.    
        2251.       2240.       2226.       2212.       2199.       2182.       2169.       2156.       2145.       2136.    
        2129.       2119.       2111.       2105.       2093.       2075.       2059.       2047.       2040.       2050.    
        2054.       2054.       2059.       2073.       2077.       2081.       2085.       2086.       2077.       2071.    
        2066.       2065.       2062.       2048.       2045.       2045.       2047.       2056.       2067.       2077.    
        2087.       2080.       2065.       2069.       2078.       2093.       2081.       2070.       2062.    
  25    2117.       2117.       2117.       2117.       2117.       2117.       2117.       2117.       2117.       2117.    
        2117.       2117.       2117.       2117.       2117.       2117.       2119.       2117.       2122.       2133.    
        2155.       2176.       2196.       2217.       2235.       2259.       2274.       2265.       2240.       2229.    
        2229.       2218.       2207.       2196.       2181.       2168.       2155.       2139.       2126.       2119.    
        2113.       2106.       2097.       2092.       2087.       2077.       2058.       2045.       2035.       2038.    
        2042.       2043.       2049.       2064.       2071.       2074.       2078.       2081.       2075.       2065.    
        2062.       2062.       2062.       2057.       2049.       2049.       2045.       2048.       2059.       2068.    
        2079.       2075.       2056.       2053.       2058.       2062.       2064.       2061.       2053.    
  26    2117.       2117.       2117.       2117.       2117.       2117.       2117.       2117.       2117.       2117.    
        2117.       2117.       2117.       2117.       2117.       2126.       2131.       2134.       2150.       2168.    
        2185.       2210.       2234.       2255.       2274.       2274.       2259.       2237.       2212.       2203.    
        2202.       2196.       2187.       2177.       2164.       2151.       2135.       2119.       2108.       2103.    
        2098.       2088.       2083.       2079.       2077.       2072.       2061.       2042.       2033.       2026.    
        2027.       2032.       2040.       2053.       2064.       2068.       2071.       2074.       2070.       2061.    
        2057.       2059.       2058.       2058.       2057.       2050.       2049.       2042.       2049.       2058.    
        2065.       2062.       2046.       2036.       2036.       2043.       2051.       2052.       2046.    
  27    2117.       2117.       2117.       2117.       2117.       2117.       2117.       2117.       2117.       2117.    
        2117.       2117.       2119.       2125.       2134.       2148.       2154.       2172.       2188.       2203.    
        2226.       2247.       2275.       2286.       2273.       2252.       2235.       2217.       2193.       2175.    
        2179.       2176.       2170.       2159.       2147.       2130.       2112.       2101.       2095.       2088.    
        2080.       2074.       2068.       2068.       2067.       2066.       2058.       2046.       2037.       2026.    
        2019.       2023.       2031.       2043.       2058.       2062.       2064.       2065.       2061.       2056.    
        2052.       2052.       2053.       2057.       2057.       2054.       2052.       2041.       2043.       2048.    
        2052.       2051.       2044.       2033.       2032.       2034.       2038.       2042.       2038.    
  28    2117.       2117.       2117.       2117.       2117.       2117.       2117.       2117.       2119.       2125.    
        2129.       2135.       2146.       2155.       2164.       2181.       2197.       2217.       2229.       2247.    
        2264.       2274.       2283.       2273.       2250.       2229.       2213.       2198.       2179.       2166.    
        2163.       2162.       2154.       2142.       2129.       2113.       2097.       2088.       2080.       2072.    
        2064.       2060.       2056.       2057.       2058.       2058.       2054.       2048.       2039.       2028.    
        2014.       2017.       2023.       2036.       2047.       2052.       2056.       2056.       2053.       2051.    
        2046.       2046.       2046.       2053.       2057.       2057.       2055.       2039.       2036.       2042.    
        2045.       2045.       2042.       2034.       2027.       2028.       2032.       2035.       2036.    
  29    2117.       2117.       2117.       2117.       2117.       2117.       2118.       2134.       2143.       2147.    
        2156.       2165.       2171.       2189.       2203.       2221.       2242.       2268.       2277.       2294.    
        2296.       2277.       2269.       2250.       2225.       2207.       2194.       2181.       2170.       2159.    
        2151.       2147.       2138.       2127.       2115.       2099.       2086.       2076.       2067.       2060.    
        2053.       2047.       2045.       2048.       2048.       2049.       2050.       2045.       2039.       2028.    
        2016.       2009.       2017.       2029.       2038.       2041.       2046.       2045.       2046.       2046.    
        2039.       2039.       2040.       2049.       2057.       2056.       2052.       2042.       2029.       2037.    
        2040.       2040.       2039.       2034.       2024.       2025.       2030.       2037.       2038.    
  30    2117.       2117.       2117.       2117.       2117.       2122.       2147.       2161.       2166.       2173.    
        2186.       2197.       2214.       2231.       2253.       2263.       2284.       2302.       2314.       2312.    
        2283.       2263.       2245.       2223.       2202.       2188.       2177.       2168.       2158.       2150.    
        2146.       2135.       2125.       2117.       2105.       2091.       2076.       2064.       2057.       2048.    
        2042.       2037.       2035.       2038.       2039.       2040.       2043.       2039.       2034.       2027.    
        2014.       2004.       2012.       2026.       2029.       2030.       2034.       2034.       2039.       2040.    
        2034.       2032.       2035.       2044.       2053.       2050.       2045.       2041.       2023.       2027.    
        2036.       2036.       2035.       2028.       2023.       2023.       2029.       2037.       2041.    
  31    2117.       2117.       2117.       2117.       2131.       2155.       2176.       2191.       2194.       2202.    
        2221.       2235.       2262.       2285.       2312.       2313.       2318.       2320.       2318.       2297.    
        2271.       2243.       2219.       2202.       2185.       2174.       2166.       2156.       2147.       2140.    
        2135.       2128.       2114.       2108.       2100.       2085.       2068.       2057.       2048.       2042.    
        2036.       2031.       2029.       2029.       2031.       2033.       2034.       2034.       2029.       2023.    
        2010.       1999.       2007.       2019.       2020.       2020.       2022.       2026.       2033.       2033.    
        2027.       2023.       2030.       2039.       2046.       2044.       2038.       2036.       2025.       2011.    
        2022.       2029.       2030.       2025.       2021.       2022.       2026.       2037.       2040.    
  32    2117.       2117.       2120.       2142.       2163.       2187.       2220.       2234.       2226.       2232.    
        2249.       2277.       2319.       2340.       2350.       2347.       2336.       2318.       2297.       2282.    
        2257.       2229.       2203.       2180.       2170.       2162.       2154.       2146.       2138.       2131.    
        2125.       2120.       2109.       2102.       2094.       2081.       2065.       2051.       2044.       2037.    
        2030.       2025.       2023.       2022.       2023.       2025.       2027.       2027.       2026.       2020.    
        2007.       1997.       1997.       2003.       2006.       2009.       2011.       2018.       2023.       2023.    
        2017.       2013.       2023.       2031.       2039.       2038.       2032.       2030.       2020.       2005.    
        2015.       2025.       2027.       2023.       2019.       2019.       2024.       2029.       2030.    
  33    2117.       2129.       2154.       2173.       2202.       2233.       2288.       2272.       2260.       2271.    
        2284.       2314.       2344.       2361.       2377.       2363.       2326.       2301.       2284.       2270.    
        2248.       2222.       2192.       2168.       2159.       2153.       2144.       2136.       2130.       2123.    
        2117.       2113.       2108.       2100.       2086.       2073.       2060.       2049.       2038.       2039.    
        2037.       2031.       2024.       2019.       2017.       2017.       2017.       2019.       2020.       2015.    
        2007.       1997.       1991.       1991.       1994.       1995.       1999.       2005.       2008.       2007.    
        2004.       2005.       2013.       2022.       2028.       2027.       2026.       2025.       2010.       2003.    
        2015.       2022.       2023.       2021.       2016.       2013.       2017.       2020.       2017.    
  34    2135.       2161.       2191.       2215.       2250.       2283.       2322.       2304.       2303.       2306.    
        2311.       2331.       2357.       2384.       2381.       2352.       2317.       2291.       2277.       2265.    
        2243.       2217.       2192.       2169.       2151.       2143.       2133.       2128.       2122.       2116.    
        2111.       2107.       2099.       2092.       2083.       2064.       2054.       2046.       2049.       2049.    
        2050.       2044.       2033.       2022.       2016.       2011.       2007.       2001.       2008.       2007.    
        2003.       1998.       1991.       1987.       1985.       1984.       1986.       1989.       1992.       1994.    
        1989.       1997.       2003.       2011.       2014.       2011.       2006.       2006.       1986.       1995.    
        2005.       2014.       2016.       2018.       2014.       2009.       2009.       2012.       2010.    
  35    2164.       2192.       2228.       2261.       2305.       2337.       2360.       2344.       2340.       2334.    
        2332.       2345.       2367.       2379.       2363.       2346.       2318.       2281.       2270.       2258.    
        2234.       2214.       2193.       2172.       2153.       2141.       2132.       2124.       2115.       2110.    
        2104.       2099.       2091.       2081.       2067.       2062.       2054.       2054.       2066.       2074.    
        2074.       2065.       2041.       2026.       2019.       2014.       2014.       2006.       1994.       1990.    
        1989.       1988.       1989.       1990.       1982.       1979.       1980.       1979.       1980.       1980.    
        1981.       1989.       1997.       1999.       2000.       2001.       1992.       1986.       1973.       1980.    
        1991.       2003.       2014.       2015.       2014.       2007.       1999.       1998.       2002.    
  36    2196.       2229.       2263.       2308.       2368.       2395.       2399.       2384.       2374.       2368.    
        2353.       2357.       2371.       2362.       2350.       2338.       2312.       2280.       2259.       2245.    
        2229.       2209.       2192.       2174.       2160.       2147.       2134.       2124.       2115.       2107.    
        2098.       2091.       2084.       2077.       2074.       2065.       2057.       2062.       2076.       2079.    
        2079.       2068.       2051.       2036.       2023.       2021.       2019.       2010.       1998.       1991.    
        1988.       1984.       1980.       1982.       1976.       1975.       1975.       1974.       1973.       1973.    
        1976.       1982.       1988.       1988.       1985.       1987.       1979.       1975.       1967.       1968.    
        1975.       1990.       2004.       2007.       2006.       2003.       1993.       1973.       1973.    
  37    2230.       2260.       2300.       2346.       2393.       2445.       2427.       2416.       2408.       2398.    
        2376.       2370.       2367.       2354.       2343.       2329.       2309.       2276.       2258.       2240.    
        2219.       2202.       2184.       2170.       2160.       2147.       2134.       2125.       2120.       2112.    
        2101.       2094.       2089.       2085.       2082.       2072.       2061.       2065.       2075.       2080.    
        2077.       2064.       2051.       2040.       2027.       2028.       2024.       2009.       2000.       1995.    
        1991.       1986.       1983.       1980.       1978.       1975.       1973.       1972.       1972.       1970.    
        1971.       1976.       1978.       1977.       1974.       1969.       1964.       1960.       1959.       1960.    
        1964.       1972.       1979.       1982.       1983.       1981.       1973.       1959.       1950.    
  38    2267.       2310.       2356.       2388.       2423.       2463.       2456.       2449.       2433.       2414.    
        2394.       2373.       2361.       2347.       2336.       2324.       2306.       2278.       2265.       2242.    
        2226.       2212.       2193.       2172.       2166.       2155.       2141.       2130.       2125.       2117.    
        2107.       2103.       2099.       2093.       2090.       2080.       2067.       2067.       2073.       2081.    
        2074.       2058.       2049.       2041.       2035.       2037.       2032.       2017.       2006.       1999.    
        1994.       1989.       1986.       1984.       1982.       1978.       1975.       1974.       1972.       1971.    
        1967.       1963.       1963.       1963.       1963.       1960.       1958.       1955.       1953.       1951.    
        1950.       1953.       1957.       1959.       1962.       1958.       1947.       1938.       1932.    
  39    2314.       2357.       2405.       2436.       2458.       2477.       2474.       2460.       2433.       2413.    
        2389.       2372.       2354.       2342.       2333.       2321.       2304.       2287.       2271.       2257.    
        2233.       2216.       2196.       2181.       2177.       2166.       2147.       2137.       2131.       2120.    
        2115.       2111.       2103.       2097.       2096.       2086.       2072.       2071.       2075.       2084.    
        2080.       2061.       2054.       2045.       2046.       2050.       2047.       2035.       2015.       2004.    
        1999.       1993.       1990.       1989.       1987.       1985.       1982.       1979.       1976.       1974.    
        1973.       1977.       1985.       1991.       1983.       1969.       1962.       1953.       1948.       1946.    
        1942.       1942.       1942.       1944.       1943.       1940.       1935.       1932.       1928.    
  40    2368.       2407.       2437.       2469.       2492.       2497.       2484.       2462.       2433.       2410.    
        2388.       2368.       2355.       2344.       2333.       2323.       2311.       2296.       2281.       2261.    
        2238.       2218.       2202.       2198.       2197.       2177.       2162.       2150.       2138.       2127.    
        2124.       2116.       2110.       2105.       2101.       2091.       2074.       2078.       2087.       2090.    
        2089.       2080.       2063.       2052.       2054.       2064.       2059.       2044.       2023.       2014.    
        2005.       2000.       2000.       1997.       1998.       1999.       1996.       1999.       1994.       1980.    
        1978.       1987.       2001.       2006.       2008.       2005.       1989.       1961.       1954.       1949.    
        1945.       1941.       1938.       1936.       1934.       1933.       1931.       1929.       1928.    
  41    2393.       2452.       2479.       2491.       2520.       2518.       2502.       2467.       2443.       2418.    
        2393.       2373.       2357.       2346.       2340.       2332.       2322.       2309.       2283.       2264.    
        2248.       2228.       2215.       2211.       2207.       2194.       2173.       2159.       2142.       2138.    
        2129.       2121.       2114.       2109.       2104.       2093.       2080.       2090.       2099.       2100.    
        2096.       2090.       2075.       2062.       2060.       2076.       2071.       2054.       2039.       2022.    
        2016.       2012.       2014.       2013.       2012.       2019.       2012.       2017.       2002.       1989.    
        1985.       1996.       2007.       2014.       2017.       2017.       2002.       1975.       1962.       1954.    
        1949.       1944.       1941.       1938.       1938.       1936.       1935.       1935.       1935.    
  42    2399.       2448.       2495.       2524.       2541.       2535.       2523.       2491.       2463.       2432.    
        2399.       2378.       2366.       2356.       2357.       2352.       2345.       2325.       2294.       2272.    
        2254.       2240.       2222.       2208.       2200.       2188.       2170.       2159.       2152.       2143.    
        2133.       2123.       2119.       2114.       2107.       2094.       2090.       2106.       2111.       2108.    
        2105.       2096.       2083.       2075.       2070.       2072.       2082.       2076.       2063.       2035.    
        2031.       2029.       2032.       2034.       2034.       2034.       2030.       2020.       2005.       1995.    
        1993.       2004.       2015.       2021.       2023.       2017.       2003.       1982.       1967.       1959.    
        1952.       1946.       1944.       1943.       1942.       1941.       1941.       1941.       1942.    
  43    2429.       2466.       2510.       2541.       2552.       2551.       2539.       2500.       2469.       2438.    
        2408.       2387.       2382.       2379.       2375.       2369.       2363.       2343.       2316.       2282.    
        2264.       2249.       2231.       2222.       2207.       2196.       2187.       2178.       2163.       2147.    
        2137.       2132.       2125.       2118.       2110.       2096.       2099.       2115.       2120.       2116.    
        2115.       2114.       2094.       2083.       2078.       2080.       2091.       2091.       2082.       2060.    
        2057.       2053.       2055.       2056.       2053.       2046.       2036.       2022.       2013.       2000.    
        1999.       2009.       2020.       2028.       2028.       2020.       2006.       1987.       1971.       1962.    
        1955.       1951.       1947.       1951.       1951.       1950.       1948.       1946.       1950.    
  44    2463.       2497.       2540.       2553.       2556.       2554.       2536.       2503.       2467.       2435.    
        2411.       2398.       2390.       2383.       2374.       2368.       2363.       2356.       2333.       2306.    
        2278.       2250.       2254.       2242.       2227.       2213.       2200.       2189.       2172.       2152.    
        2144.       2139.       2130.       2122.       2111.       2099.       2106.       2125.       2133.       2127.    
        2121.       2122.       2121.       2105.       2090.       2091.       2102.       2102.       2095.       2090.    
        2085.       2080.       2079.       2077.       2068.       2060.       2045.       2023.       2017.       2007.    
        2006.       2011.       2021.       2031.       2031.       2021.       2009.       1994.       1976.       1970.    
        1961.       1955.       1952.       1963.       1961.       1959.       1955.       1952.       1959.    
  45    2507.       2535.       2564.       2555.       2547.       2546.       2529.       2499.       2455.       2429.    
        2407.       2393.       2382.       2370.       2354.       2346.       2345.       2340.       2330.       2308.    
        2274.       2280.       2267.       2251.       2238.       2224.       2207.       2192.       2176.       2158.    
        2150.       2142.       2135.       2126.       2113.       2102.       2115.       2136.       2148.       2142.    
        2131.       2122.       2119.       2114.       2103.       2099.       2112.       2112.       2113.       2114.    
        2111.       2107.       2107.       2101.       2084.       2071.       2050.       2031.       2023.       2016.    
        2010.       2013.       2021.       2029.       2029.       2020.       2010.       1997.       1987.       1978.    
        1963.       1960.       1964.       1977.       1979.       1974.       1967.       1959.       1967.    
  46    2515.       2566.       2575.       2556.       2540.       2533.       2520.       2484.       2447.       2421.    
        2397.       2380.       2366.       2352.       2341.       2336.       2329.       2321.       2306.       2306.    
        2309.       2298.       2278.       2267.       2252.       2231.       2209.       2194.       2181.       2167.    
        2154.       2145.       2137.       2125.       2114.       2106.       2119.       2139.       2153.       2148.    
        2139.       2128.       2120.       2113.       2105.       2103.       2114.       2120.       2127.       2132.    
        2134.       2138.       2134.       2120.       2105.       2082.       2058.       2038.       2031.       2026.    
        2017.       2022.       2025.       2032.       2029.       2017.       2008.       1997.       1988.       1976.    
        1969.       1966.       1969.       1980.       1992.       1996.       1986.       1967.       1976.    
  47    2513.       2556.       2574.       2557.       2539.       2526.       2506.       2476.       2440.       2411.    
        2389.       2366.       2356.       2349.       2340.       2335.       2334.       2332.       2329.       2328.    
        2320.       2308.       2293.       2277.       2258.       2233.       2213.       2201.       2189.       2176.    
        2161.       2148.       2139.       2130.       2121.       2109.       2115.       2131.       2143.       2143.    
        2139.       2136.       2126.       2115.       2106.       2105.       2113.       2122.       2133.       2143.    
        2152.       2160.       2155.       2139.       2119.       2095.       2065.       2047.       2035.       2027.    
        2024.       2029.       2032.       2034.       2029.       2016.       2007.       1997.       1988.       1977.    
        1976.       1972.       1973.       1983.       1994.       2001.       1995.       1973.       1982.    
  48    2513.       2561.       2576.       2562.       2545.       2524.       2495.       2465.       2430.       2406.    
        2377.       2362.       2356.       2350.       2347.       2344.       2350.       2354.       2353.       2351.    
        2333.       2315.       2297.       2278.       2257.       2235.       2217.       2208.       2198.       2185.    
        2169.       2156.       2145.       2139.       2139.       2134.       2118.       2121.       2131.       2137.    
        2140.       2144.       2141.       2130.       2117.       2107.       2111.       2127.       2140.       2153.    
        2169.       2177.       2168.       2156.       2139.       2111.       2080.       2058.       2040.       2031.    
        2034.       2037.       2040.       2037.       2026.       2018.       2009.       2001.       1993.       1986.    
        1982.       1979.       1982.       1987.       1999.       2011.       2001.       1983.       1981.    
  49    2513.       2559.       2578.       2564.       2548.       2527.       2485.       2455.       2426.       2403.    
        2381.       2365.       2364.       2361.       2356.       2361.       2365.       2368.       2370.       2353.    
        2331.       2313.       2296.       2275.       2260.       2241.       2230.       2215.       2203.       2189.    
        2175.       2165.       2153.       2150.       2149.       2148.       2134.       2121.       2125.       2133.    
        2143.       2150.       2153.       2148.       2135.       2117.       2109.       2123.       2139.       2161.    
        2181.       2197.       2188.       2171.       2153.       2126.       2096.       2070.       2052.       2040.    
        2042.       2046.       2048.       2045.       2030.       2021.       2014.       2007.       1999.       1993.    
        1990.       1986.       1991.       1998.       2005.       2013.       2013.       1994.       1988.    
  50    2525.       2564.       2585.       2572.       2555.       2519.       2482.       2451.       2416.       2401.    
        2392.       2375.       2379.       2377.       2377.       2382.       2381.       2373.       2358.       2340.    
        2323.       2307.       2292.       2274.       2261.       2248.       2237.       2226.       2211.       2195.    
        2180.       2171.       2162.       2157.       2154.       2150.       2138.       2127.       2125.       2134.    
        2145.       2154.       2161.       2162.       2156.       2132.       2117.       2118.       2133.       2158.    
        2186.       2206.       2206.       2190.       2167.       2144.       2112.       2088.       2068.       2053.    
        2048.       2054.       2062.       2059.       2042.       2028.       2019.       2012.       2005.       2001.    
        1997.       1993.       2000.       2006.       2012.       2019.       2024.       2014.       2001.    
  51    2533.       2568.       2579.       2572.       2548.       2507.       2477.       2445.       2408.       2397.    
        2387.       2392.       2403.       2401.       2406.       2406.       2390.       2363.       2344.       2330.    
        2318.       2307.       2294.       2281.       2272.       2256.       2240.       2228.       2217.       2201.    
        2187.       2176.       2167.       2161.       2155.       2149.       2137.       2129.       2128.       2134.    
        2145.       2156.       2164.       2169.       2168.       2150.       2125.       2117.       2122.       2149.    
        2179.       2205.       2222.       2207.       2181.       2156.       2128.       2102.       2081.       2071.    
        2057.       2061.       2070.       2073.       2060.       2039.       2024.       2018.       2012.       2014.    
        2009.       1998.       2005.       2014.       2020.       2026.       2032.       2021.       2011.    
  52    2555.       2573.       2578.       2565.       2536.       2495.       2465.       2438.       2411.       2397.    
        2403.       2411.       2420.       2426.       2428.       2422.       2408.       2382.       2364.       2343.    
        2325.       2313.       2303.       2290.       2279.       2264.       2245.       2230.       2217.       2206.    
        2194.       2180.       2170.       2162.       2154.       2146.       2137.       2129.       2130.       2134.    
        2144.       2155.       2166.       2172.       2177.       2169.       2146.       2125.       2121.       2136.    
        2169.       2201.       2221.       2218.       2198.       2171.       2138.       2114.       2094.       2081.    
        2071.       2072.       2077.       2079.       2074.       2053.       2034.       2026.       2027.       2027.    
        2023.       2008.       2010.       2024.       2031.       2037.       2048.       2042.       2025.    
  53    2582.       2586.       2584.       2564.       2526.       2491.       2462.       2429.       2415.       2409.    
        2419.       2426.       2438.       2444.       2445.       2442.       2432.       2412.       2384.       2363.    
        2344.       2325.       2313.       2302.       2293.       2277.       2255.       2236.       2218.       2205.    
        2194.       2183.       2172.       2163.       2154.       2145.       2139.       2132.       2132.       2138.    
        2148.       2162.       2172.       2183.       2189.       2188.       2167.       2141.       2134.       2136.    
        2164.       2193.       2219.       2225.       2206.       2177.       2150.       2124.       2103.       2090.    
        2085.       2083.       2083.       2083.       2076.       2059.       2043.       2036.       2037.       2039.    
        2036.       2025.       2017.       2033.       2050.       2053.       2062.       2060.       2038.    
  54    2604.       2599.       2587.       2556.       2513.       2486.       2469.       2452.       2429.       2429.    
        2433.       2440.       2452.       2457.       2459.       2465.       2460.       2433.       2409.       2388.    
        2361.       2341.       2327.       2315.       2306.       2289.       2265.       2245.       2225.       2206.    
        2192.       2183.       2171.       2162.       2153.       2145.       2141.       2135.       2137.       2147.    
        2161.       2173.       2190.       2202.       2213.       2213.       2188.       2161.       2152.       2144.    
        2159.       2190.       2216.       2228.       2215.       2184.       2159.       2137.       2114.       2100.    
        2095.       2096.       2093.       2090.       2086.       2068.       2053.       2046.       2050.       2053.    
        2054.       2042.       2029.       2037.       2053.       2061.       2066.       2066.       2058.    
  55    2618.       2614.       2586.       2557.       2533.       2508.       2483.       2465.       2441.       2447.    
        2445.       2456.       2464.       2469.       2473.       2479.       2481.       2453.       2428.       2407.    
        2380.       2357.       2339.       2325.       2313.       2297.       2275.       2254.       2232.       2209.    
        2194.       2182.       2171.       2161.       2153.       2146.       2143.       2138.       2144.       2157.    
        2172.       2189.       2207.       2223.       2235.       2236.       2205.       2180.       2166.       2159.    
        2165.       2187.       2212.       2232.       2225.       2194.       2169.       2153.       2134.       2112.    
        2108.       2106.       2104.       2098.       2091.       2078.       2067.       2058.       2062.       2067.    
        2068.       2066.       2041.       2048.       2058.       2065.       2072.       2072.       2071.    
  56    2628.       2609.       2575.       2545.       2535.       2525.       2504.       2475.       2466.       2456.    
        2453.       2469.       2478.       2479.       2484.       2492.       2493.       2471.       2450.       2428.    
        2405.       2378.       2354.       2337.       2320.       2306.       2285.       2263.       2238.       2212.    
        2199.       2186.       2172.       2161.       2155.       2150.       2146.       2143.       2150.       2164.    
        2182.       2201.       2222.       2239.       2254.       2254.       2219.       2198.       2182.       2175.    
        2170.       2183.       2211.       2234.       2232.       2202.       2182.       2164.       2146.       2128.    
        2118.       2119.       2118.       2108.       2096.       2086.       2076.       2070.       2072.       2080.    
        2085.       2080.       2052.       2057.       2069.       2075.       2076.       2078.       2078.    
  57    2638.       2599.       2549.       2534.       2537.       2532.       2507.       2508.       2481.       2467.    
        2482.       2493.       2494.       2492.       2498.       2505.       2506.       2491.       2474.       2450.    
        2423.       2401.       2369.       2350.       2330.       2313.       2295.       2273.       2243.       2221.    
        2203.       2187.       2174.       2163.       2156.       2151.       2147.       2148.       2155.       2167.    
        2182.       2202.       2226.       2241.       2256.       2263.       2242.       2214.       2198.       2189.    
        2181.       2189.       2211.       2238.       2245.       2215.       2195.       2177.       2161.       2146.    
        2132.       2137.       2135.       2122.       2106.       2096.       2088.       2080.       2081.       2088.    
        2095.       2090.       2063.       2070.       2075.       2079.       2081.       2083.       2085.    
  58    2641.       2597.       2553.       2535.       2525.       2517.       2530.       2526.       2492.       2494.    
        2504.       2513.       2514.       2505.       2510.       2516.       2520.       2507.       2485.       2461.    
        2435.       2413.       2389.       2363.       2343.       2323.       2305.       2280.       2252.       2227.    
        2210.       2192.       2178.       2167.       2158.       2153.       2150.       2150.       2156.       2165.    
        2178.       2197.       2216.       2233.       2254.       2266.       2271.       2237.       2218.       2206.    
        2198.       2198.       2215.       2242.       2254.       2230.       2210.       2193.       2177.       2160.    
        2149.       2153.       2150.       2138.       2122.       2109.       2099.       2093.       2093.       2098.    
        2095.       2087.       2074.       2081.       2083.       2084.       2086.       2092.       2096.    
  59    2648.       2611.       2564.       2542.       2531.       2523.       2548.       2546.       2534.       2520.    
        2526.       2533.       2530.       2524.       2524.       2526.       2534.       2519.       2496.       2472.    
        2442.       2422.       2400.       2373.       2352.       2333.       2311.       2285.       2257.       2235.    
        2214.       2198.       2181.       2170.       2160.       2155.       2151.       2152.       2158.       2165.    
        2178.       2195.       2215.       2233.       2252.       2270.       2277.       2263.       2236.       2224.    
        2215.       2212.       2219.       2246.       2260.       2245.       2225.       2211.       2196.       2179.    
        2166.       2170.       2164.       2152.       2136.       2119.       2113.       2105.       2107.       2106.    
        2096.       2087.       2085.       2089.       2088.       2090.       2096.       2103.       2107.    
  60    2637.       2632.       2600.       2575.       2565.       2550.       2575.       2578.       2573.       2560.    
        2560.       2553.       2541.       2534.       2531.       2536.       2543.       2529.       2506.       2479.    
        2453.       2428.       2404.       2388.       2372.       2346.       2319.       2290.       2267.       2242.    
        2217.       2203.       2187.       2173.       2164.       2157.       2153.       2154.       2158.       2166.    
        2177.       2196.       2215.       2232.       2255.       2278.       2288.       2280.       2259.       2238.    
        2229.       2226.       2225.       2245.       2262.       2256.       2241.       2228.       2211.       2198.    
        2188.       2194.       2188.       2170.       2152.       2135.       2128.       2122.       2120.       2111.    
        2098.       2091.       2093.       2096.       2095.       2099.       2107.       2112.       2115.    
  61    2614.       2626.       2629.       2621.       2602.       2599.       2598.       2594.       2603.       2605.    
        2588.       2575.       2550.       2530.       2514.       2527.       2533.       2536.       2509.       2484.    
        2458.       2430.       2408.       2390.       2382.       2350.       2323.       2297.       2273.       2245.    
        2225.       2211.       2190.       2177.       2168.       2159.       2156.       2155.       2159.       2166.    
        2178.       2194.       2214.       2234.       2256.       2282.       2303.       2299.       2276.       2256.    
        2241.       2235.       2236.       2244.       2262.       2266.       2258.       2245.       2228.       2215.    
        2205.       2211.       2211.       2189.       2170.       2154.       2142.       2133.       2127.       2112.    
        2103.       2097.       2101.       2103.       2103.       2110.       2116.       2119.       2122.    
  62    2586.       2600.       2623.       2626.       2614.       2601.       2597.       2594.       2604.       2619.    
        2600.       2562.       2524.       2493.       2474.       2479.       2505.       2517.       2509.       2487.    
        2461.       2433.       2407.       2392.       2377.       2349.       2328.       2303.       2276.       2251.    
        2230.       2213.       2195.       2181.       2171.       2163.       2159.       2157.       2159.       2167.    
        2178.       2193.       2214.       2232.       2253.       2280.       2306.       2313.       2301.       2273.    
        2257.       2247.       2246.       2248.       2260.       2274.       2274.       2263.       2249.       2235.    
        2219.       2229.       2226.       2210.       2189.       2172.       2158.       2142.       2127.       2116.    
        2107.       2106.       2109.       2108.       2112.       2117.       2123.       2127.       2130.    
  63    2552.       2587.       2612.       2622.       2608.       2582.       2581.       2575.       2586.       2606.    
        2585.       2541.       2500.       2459.       2437.       2437.       2460.       2467.       2485.       2489.    
        2464.       2429.       2407.       2391.       2377.       2352.       2331.       2307.       2283.       2253.    
        2233.       2218.       2203.       2184.       2173.       2166.       2162.       2159.       2162.       2168.    
        2177.       2192.       2211.       2229.       2252.       2272.       2298.       2321.       2318.       2298.    
        2271.       2261.       2256.       2255.       2265.       2278.       2289.       2283.       2272.       2264.    
        2252.       2250.       2247.       2229.       2211.       2187.       2167.       2151.       2135.       2120.    
        2112.       2113.       2114.       2115.       2118.       2124.       2129.       2134.       2138.    
  64    2516.       2548.       2583.       2602.       2609.       2572.       2542.       2532.       2548.       2588.    
        2571.       2527.       2480.       2433.       2397.       2397.       2408.       2417.       2458.       2475.    
        2461.       2427.       2401.       2385.       2379.       2359.       2337.       2314.       2291.       2259.    
        2240.       2221.       2208.       2193.       2176.       2168.       2164.       2162.       2163.       2167.    
        2177.       2189.       2208.       2226.       2247.       2270.       2294.       2316.       2328.       2320.    
        2297.       2281.       2276.       2268.       2270.       2281.       2294.       2302.       2298.       2287.    
        2278.       2274.       2265.       2251.       2230.       2201.       2173.       2155.       2139.       2125.    
        2119.       2119.       2120.       2120.       2123.       2128.       2135.       2142.       2147.    
  65    2459.       2505.       2549.       2580.       2564.       2551.       2512.       2483.       2506.       2534.    
        2563.       2511.       2463.       2407.       2368.       2348.       2353.       2372.       2407.       2435.    
        2455.       2421.       2378.       2359.       2368.       2360.       2339.       2315.       2296.       2267.    
        2239.       2217.       2210.       2197.       2184.       2171.       2166.       2164.       2164.       2168.    
        2175.       2188.       2203.       2220.       2242.       2263.       2286.       2315.       2331.       2331.    
        2320.       2310.       2305.       2289.       2277.       2282.       2295.       2310.       2316.       2308.    
        2301.       2292.       2278.       2262.       2240.       2211.       2181.       2157.       2144.       2131.    
        2128.       2126.       2127.       2127.       2127.       2133.       2139.       2146.       2151.    
  66    2415.       2457.       2502.       2510.       2493.       2493.       2464.       2426.       2453.       2482.    
        2519.       2515.       2448.       2396.       2352.       2312.       2302.       2333.       2360.       2393.    
        2423.       2401.       2361.       2327.       2320.       2326.       2330.       2318.       2293.       2269.    
        2242.       2207.       2190.       2193.       2187.       2176.       2170.       2168.       2164.       2167.    
        2174.       2185.       2198.       2215.       2233.       2254.       2277.       2299.       2316.       2333.    
        2328.       2325.       2324.       2307.       2292.       2288.       2298.       2315.       2329.       2326.    
        2318.       2304.       2289.       2268.       2246.       2215.       2184.       2163.       2151.       2143.    
        2141.       2136.       2135.       2132.       2130.       2134.       2141.       2147.       2155.    
  67    2375.       2416.       2443.       2450.       2439.       2424.       2402.       2377.       2404.       2431.    
        2471.       2484.       2439.       2385.       2331.       2288.       2258.       2285.       2316.       2348.    
        2368.       2360.       2334.       2286.       2263.       2269.       2283.       2296.       2284.       2270.    
        2227.       2190.       2166.       2168.       2176.       2178.       2173.       2171.       2164.       2164.    
        2170.       2178.       2191.       2205.       2222.       2241.       2261.       2278.       2297.       2310.    
        2320.       2322.       2332.       2322.       2304.       2296.       2301.       2315.       2334.       2339.    
        2330.       2317.       2292.       2272.       2250.       2220.       2193.       2168.       2159.       2154.    
        2146.       2141.       2136.       2132.       2131.       2135.       2141.       2148.       2158.    
  68    2343.       2386.       2380.       2393.       2396.       2369.       2349.       2328.       2356.       2382.    
        2414.       2423.       2391.       2353.       2303.       2255.       2219.       2243.       2272.       2301.    
        2308.       2290.       2303.       2269.       2205.       2214.       2218.       2235.       2238.       2212.    
        2203.       2163.       2136.       2138.       2145.       2154.       2161.       2161.       2160.       2159.    
        2160.       2169.       2179.       2191.       2211.       2224.       2242.       2261.       2275.       2286.    
        2300.       2316.       2330.       2330.       2314.       2304.       2301.       2311.       2327.       2347.    
        2336.       2322.       2300.       2278.       2256.       2226.       2200.       2179.       2169.       2158.    
        2148.       2140.       2133.       2131.       2130.       2135.       2140.       2147.       2152.    
  69    2318.       2343.       2319.       2338.       2333.       2319.       2305.       2280.       2311.       2339.    
        2352.       2371.       2346.       2313.       2270.       2224.       2190.       2201.       2224.       2249.    
        2240.       2221.       2227.       2254.       2168.       2154.       2155.       2161.       2167.       2148.    
        2156.       2141.       2097.       2089.       2103.       2098.       2126.       2138.       2136.       2136.    
        2139.       2157.       2165.       2175.       2188.       2199.       2218.       2236.       2254.       2269.    
        2287.       2308.       2324.       2336.       2320.       2306.       2300.       2308.       2319.       2337.    
        2349.       2331.       2310.       2288.       2265.       2237.       2212.       2193.       2176.       2159.    
        2147.       2136.       2129.       2125.       2128.       2134.       2137.       2141.       2142.    
  70    2269.       2289.       2276.       2286.       2280.       2270.       2256.       2241.       2266.       2278.    
        2292.       2310.       2302.       2259.       2229.       2197.       2155.       2157.       2179.       2185.    
        2169.       2174.       2172.       2148.       2120.       2092.       2096.       2103.       2101.       2087.    
        2102.       2094.       2064.       2046.       2057.       2058.       2082.       2093.       2100.       2099.    
        2121.       2136.       2143.       2152.       2165.       2172.       2185.       2208.       2228.       2249.    
        2267.       2291.       2314.       2337.       2321.       2302.       2293.       2303.       2313.       2327.    
        2341.       2345.       2324.       2300.       2278.       2247.       2227.       2207.       2185.       2164.    
        2146.       2134.       2121.       2120.       2126.       2130.       2127.       2128.       2127.    
  71    2227.       2236.       2238.       2242.       2235.       2228.       2218.       2207.       2219.       2223.    
        2235.       2242.       2243.       2218.       2188.       2164.       2123.       2117.       2133.       2134.    
        2122.       2126.       2108.       2093.       2074.       2043.       2044.       2054.       2055.       2036.    
        2057.       2044.       2022.       2014.       2017.       2021.       2035.       2044.       2054.       2054.    
        2085.       2105.       2102.       2114.       2130.       2144.       2157.       2179.       2202.       2224.    
        2242.       2270.       2300.       2320.       2315.       2296.       2289.       2297.       2302.       2314.    
        2327.       2336.       2339.       2313.       2291.       2255.       2242.       2221.       2199.       2171.    
        2149.       2129.       2115.       2116.       2124.       2124.       2119.       2117.       2112.    
 #Sagehen-GRID Simulation -- Example problem for GSFLOW
 #  (File modified for version 1.1.00 release)
 #Budget output is written to the List file (sagehen.mf.list) at
 #  the end of the steady-state simulation and
 #  September 30 of 1981, 1985, 1990, 1995, and 1996
 #Calculated heads are written to the List file (sagehen.mf.list)
 #  and to the head output file (unit 58) at
 #  the end of the steady-state simulation and
 #  September 30, 1996

 OUTPUT CONTROL IS SPECIFIED ONLY AT TIME STEPS FOR WHICH OUTPUT IS DESIRED
 HEADS WILL BE SAVED WITH FORMAT: (20F10.3)           
 SAVED HEADS WILL BE LABELED
 HEAD PRINT FORMAT CODE IS   0    DRAWDOWN PRINT FORMAT CODE IS   0
 HEADS WILL BE SAVED ON UNIT   58    DRAWDOWNS WILL BE SAVED ON UNIT    0
 # MODFLOW2005 NWT Input File
 # SAGEHEN-GRID Test Problem
 #HEADTOL  FLUXTOL MAXITEROUT THICKFACT   LINMETH    IPRNWT     IBOTAV                OPTIONS  [DBDTHETA]  [DBDKAPPA] [DBDGAMMA] [MOMFACT] [BACKFLAG] [MAXBACKITER] [BACKTOL] [BACKREDUCE]
 # [IACL] [NORDER]    [LEVEL]   [NORTH] [IREDSYS] [RRCTOLS] [IDROPTOL]   [EPSRN]  [HCLOSEXMD] [MXITERXMD]

 NWT1 -- Newton Solver, VERSION 1.1.4, 4/01/2018
         INPUT READ FROM UNIT 17

 SPECIFIED OPTION:
 SOLVER INPUT VALUES ARE SPECIFIED BY USER
 ***XMD linear solver will be used***

   CONVERGENCE CRITERION OF   0.100000E-02 FOR HEAD SOLUTION
   AND A TOLERANCE OF   0.100000E+04 FOR FLOW SOLUTION AND 
   A MAXIMUM OF   500 OUTER ITERATIONS. 


   D-B-D REDUCTION FACTOR OF    0.960000E+00 AND 
   A D-B-D INCREASE FACTOR OF    0.100000E-04 AND 
   A D-B-D RELAXATION OF    0.000000E+00 AND 
   A MOMENTUM FACTOR OF    0.000000E+00 .


 ***BACKTRACKING IS INACTIVE***
 XMD -- LINEAR SOLUTION BY XMD PACKAGE VERSION 1.30
     BY MOTOMU IBARAKI, OHIO STATE UNIVERSITY, COLOMBUS, OH
                 INPUT READ FROM UNIT 17
 ACCELERATION METHOD                    (IACL) =         1
 NODE ORDERING FLAG                   (NORDER) =         1
 LEVEL OF FILL                         (LEVEL) =         0
 MAXIMUM NUMBER OF ORTHOGONALIZATIONS  (NORTH) =         7
 INDEX FOR USING REDUCED SYSTEM      (IREDSYS) =         0
 RESID. REDUCTION CONVERGE CRITERION  (RRCTOL) =  0.000000E+00
 INDEX FOR USING DROP TOLERANCE     (IDROPTOL) =         1
 DROP TOLERANCE VALUE                  (EPSRN) =  0.500000E-02
 CONVERGENCE CRITERIA OF           (HCLOSEXMD) =  0.100000E-02
 MAX. NUMBER OF LINEAR ITERATIONS  (MXITERXMD) =       200


 UPW1 -- UPSTREAM WEIGHTING FLOW PACKAGE, VERSION 1.1.4, 4/01/2018
         INPUT READ FROM UNIT 12

 #Sagehen-GRID Simulation -- Example problem for GSFLOW
 No named parameters

   LAYER FLAGS:
 LAYER       LAYTYP          LAYAVG    CHANI           LAYVKA           LAYWET
 ---------------------------------------------------------------------------
    1             1             0     1.000E+00             0             0
    2             0             0     1.000E+00             0             0

   INTERPRETATION OF LAYER FLAGS:
                        INTERBLOCK     HORIZONTAL    DATA IN
         LAYER TYPE   TRANSMISSIVITY   ANISOTROPY   ARRAY VKA   WETTABILITY
 LAYER   (LAYTYP)        (LAYAVG)      (CHANI)     (LAYVKA)       (LAYWET)
 ---------------------------------------------------------------------------
    1   CONVERTIBLE      HARMONIC     1.000E+00    VERTICAL K  NON-WETTABLE
    2      CONFINED      HARMONIC     1.000E+00    VERTICAL K  NON-WETTABLE



              HYD. COND. ALONG ROWS FOR LAYER   1
 READING ON UNIT   12 WITH FORMAT: (FREE)              

            1           2           3           4           5           6           7           8           9          10
           11          12          13          14          15          16          17          18          19          20
           21          22          23          24          25          26          27          28          29          30
           31          32          33          34          35          36          37          38          39          40
           41          42          43          44          45          46          47          48          49          50
           51          52          53          54          55          56          57          58          59          60
           61          62          63          64          65          66          67          68          69          70
           71          72          73          74          75          76          77          78          79
 ........................................................................................................................
   1    0.000       0.000       0.000       0.000       0.000       0.000       0.000       0.000       0.000       0.000    
        0.000       0.000       0.000       0.000       0.000       0.000       0.000       0.000       0.000       0.000    
        0.000       0.000       0.000       0.000       0.000       0.000       0.000       0.000       0.000       0.000    
        0.000       0.000       0.000       0.000       0.000       0.000       0.000       0.000       0.000       0.000    
        0.000       0.000       0.000       0.000       0.000       0.000       0.000       0.000       0.000       0.000    
        0.000      2.6000E-02  2.6000E-02   0.000       0.000       0.000       0.000       0.000       0.000       0.000    
        0.000       0.000       0.000       0.000       0.000       0.000       0.000       0.000       0.000       0.000    
        0.000       0.000       0.000       0.000       0.000       0.000       0.000       0.000       0.000    
   2    0.000       0.000       0.000       0.000       0.000       0.000       0.000       0.000       0.000       0.000    
        0.000       0.000       0.000       0.000       0.000       0.000       0.000       0.000       0.000       0.000    
        0.000       0.000       0.000       0.000       0.000       0.000       0.000       0.000       0.000       0.000    
        0.000       0.000       0.000       0.000       0.000       0.000       0.000       0.000       0.000       0.000    
        0.000       0.000       0.000       0.000       0.000       0.000       0.000       0.000       0.000       0.000    
        0.000      2.6000E-02  6.5000E-02  6.5000E-02   0.000       0.000       0.000       0.000       0.000       0.000    
        0.000       0.000       0.000       0.000       0.000       0.000       0.000       0.000       0.000       0.000    
        0.000       0.000       0.000       0.000       0.000       0.000       0.000       0.000       0.000    
   3    0.000       0.000       0.000       0.000       0.000       0.000       0.000       0.000       0.000       0.000    
        0.000       0.000       0.000       0.000       0.000       0.000       0.000       0.000       0.000       0.000    
        0.000       0.000       0.000       0.000       0.000       0.000       0.000       0.000       0.000       0.000    
        0.000       0.000       0.000       0.000       0.000       0.000       0.000       0.000       0.000       0.000    
        0.000       0.000       0.000       0.000       0.000       0.000       0.000       0.000       0.000       0.000    
        0.000      2.6000E-02  6.5000E-02  0.1300       0.000       0.000       0.000       0.000       0.000       0.000    
        0.000       0.000       0.000       0.000       0.000       0.000       0.000       0.000       0.000       0.000    
        0.000       0.000       0.000       0.000       0.000       0.000       0.000       0.000       0.000    
   4    0.000       0.000       0.000       0.000       0.000       0.000       0.000       0.000       0.000       0.000    
        0.000       0.000       0.000       0.000       0.000       0.000       0.000       0.000       0.000       0.000    
        0.000       0.000       0.000       0.000       0.000       0.000       0.000       0.000       0.000       0.000    
        0.000       0.000       0.000       0.000       0.000       0.000       0.000       0.000       0.000       0.000    
        0.000       0.000       0.000       0.000       0.000       0.000       0.000       0.000       0.000       0.000    
        0.000      6.5000E-02  6.5000E-02  0.1300      0.1300       0.000       0.000       0.000       0.000       0.000    
        0.000       0.000       0.000       0.000       0.000       0.000       0.000       0.000       0.000       0.000    
        0.000       0.000       0.000       0.000       0.000       0.000       0.000       0.000       0.000    
   5    0.000       0.000       0.000       0.000       0.000       0.000       0.000       0.000       0.000       0.000    
        0.000       0.000       0.000       0.000       0.000       0.000       0.000       0.000       0.000       0.000    
        0.000       0.000       0.000       0.000       0.000       0.000       0.000       0.000       0.000       0.000    
        0.000       0.000       0.000       0.000       0.000       0.000       0.000       0.000       0.000       0.000    
        0.000       0.000       0.000       0.000       0.000       0.000       0.000       0.000       0.000       0.000    
        0.000      6.5000E-02  6.5000E-02  6.5000E-02  0.1300      6.5000E-02  6.5000E-02   0.000       0.000       0.000    
        0.000       0.000       0.000       0.000       0.000       0.000       0.000       0.000       0.000       0.000    
        0.000       0.000       0.000       0.000       0.000       0.000       0.000       0.000       0.000    
   6    0.000       0.000       0.000       0.000       0.000       0.000       0.000       0.000       0.000       0.000    
        0.000       0.000       0.000       0.000       0.000       0.000       0.000       0.000       0.000       0.000    
        0.000       0.000       0.000       0.000       0.000       0.000       0.000       0.000       0.000       0.000    
        0.000       0.000       0.000       0.000       0.000       0.000       0.000       0.000       0.000       0.000    
        0.000       0.000       0.000       0.000       0.000       0.000       0.000       0.000       0.000       0.000    
        0.000      6.5000E-02  6.5000E-02  6.5000E-02  0.1300      0.1300      6.5000E-02  6.5000E-02  6.5000E-02   0.000    
        0.000       0.000       0.000      6.5000E-02  6.5000E-02   0.000       0.000       0.000       0.000       0.000    
        0.000       0.000       0.000       0.000       0.000       0.000       0.000       0.000       0.000    
   7    0.000       0.000       0.000       0.000       0.000       0.000       0.000       0.000       0.000       0.000    
        0.000       0.000       0.000       0.000       0.000       0.000       0.000       0.000       0.000       0.000    
        0.000       0.000       0.000       0.000       0.000       0.000       0.000       0.000       0.000       0.000    
        0.000       0.000       0.000       0.000       0.000       0.000       0.000       0.000       0.000       0.000    
        0.000       0.000       0.000       0.000       0.000       0.000       0.000       0.000       0.000       0.000    
        0.000      6.5000E-02  6.5000E-02  6.5000E-02  0.1300      0.1300      0.1300      6.5000E-02  6.5000E-02  6.5000E-02
       6.5000E-02  6.5000E-02  6.5000E-02  6.5000E-02  6.5000E-02  6.5000E-02   0.000       0.000       0.000       0.000    
        0.000       0.000       0.000       0.000       0.000       0.000       0.000       0.000       0.000    
   8    0.000       0.000       0.000       0.000       0.000       0.000       0.000       0.000       0.000       0.000    
        0.000       0.000       0.000       0.000       0.000       0.000       0.000       0.000       0.000       0.000    
        0.000       0.000       0.000       0.000       0.000       0.000       0.000       0.000       0.000       0.000    
        0.000       0.000       0.000       0.000       0.000       0.000       0.000       0.000       0.000       0.000    
        0.000       0.000       0.000       0.000       0.000       0.000       0.000       0.000       0.000       0.000    
        0.000      6.5000E-02  6.5000E-02  6.5000E-02  0.1300      0.1300      0.1300      6.5000E-02  6.5000E-02  6.5000E-02
       6.5000E-02  6.5000E-02  6.5000E-02  6.5000E-02  6.5000E-02  6.5000E-02  6.5000E-02  6.5000E-02   0.000       0.000    
        0.000       0.000       0.000       0.000       0.000       0.000       0.000       0.000       0.000    
   9    0.000       0.000       0.000       0.000       0.000       0.000       0.000       0.000       0.000       0.000    
        0.000       0.000       0.000       0.000       0.000       0.000       0.000       0.000       0.000       0.000    
        0.000       0.000       0.000       0.000       0.000       0.000       0.000       0.000       0.000       0.000    
        0.000       0.000       0.000       0.000       0.000       0.000       0.000       0.000       0.000       0.000    
        0.000       0.000       0.000       0.000       0.000       0.000       0.000       0.000       0.000       0.000    
       5.2000E-02  6.5000E-02  6.5000E-02  6.5000E-02  0.1300      0.1300      0.1300      6.5000E-02  6.5000E-02  6.5000E-02
       6.5000E-02  6.5000E-02  6.5000E-02  6.5000E-02  6.5000E-02  6.5000E-02  6.5000E-02  6.5000E-02  6.5000E-02   0.000    
        0.000       0.000       0.000       0.000       0.000       0.000       0.000       0.000       0.000    
  10    0.000       0.000       0.000       0.000       0.000       0.000       0.000       0.000       0.000       0.000    
        0.000       0.000       0.000       0.000       0.000       0.000       0.000       0.000       0.000       0.000    
        0.000       0.000       0.000       0.000       0.000       0.000       0.000       0.000       0.000       0.000    
        0.000       0.000       0.000       0.000       0.000       0.000       0.000       0.000       0.000       0.000    
        0.000       0.000       0.000       0.000       0.000       0.000       0.000       0.000       0.000      6.5000E-02
       6.5000E-02  6.5000E-02  6.5000E-02  6.5000E-02  6.5000E-02  0.1300      0.1300      0.1300      6.5000E-02  6.5000E-02
       6.5000E-02  6.5000E-02  6.5000E-02  6.5000E-02  6.5000E-02  6.5000E-02  6.5000E-02  6.5000E-02  6.5000E-02  6.5000E-02
        0.000       0.000       0.000       0.000       0.000       0.000       0.000       0.000       0.000    
  11    0.000       0.000       0.000       0.000       0.000       0.000       0.000       0.000       0.000       0.000    
        0.000       0.000       0.000       0.000       0.000       0.000       0.000       0.000       0.000       0.000    
        0.000       0.000       0.000       0.000       0.000       0.000       0.000       0.000       0.000       0.000    
        0.000       0.000       0.000       0.000       0.000       0.000       0.000       0.000       0.000       0.000    
        0.000       0.000       0.000       0.000       0.000       0.000       0.000       0.000      6.5000E-02  6.5000E-02
       6.5000E-02  6.5000E-02  6.5000E-02  6.5000E-02  6.5000E-02  0.1300      0.1300      0.1300      6.5000E-02  6.5000E-02
       6.5000E-02  6.5000E-02  6.5000E-02  6.5000E-02  6.5000E-02  6.5000E-02  6.5000E-02  6.5000E-02  6.5000E-02  6.5000E-02
       6.5000E-02   0.000       0.000       0.000       0.000       0.000       0.000       0.000       0.000    
  12    0.000       0.000       0.000       0.000       0.000       0.000       0.000       0.000       0.000       0.000    
        0.000       0.000       0.000       0.000       0.000       0.000       0.000       0.000       0.000       0.000    
        0.000       0.000       0.000       0.000       0.000       0.000       0.000       0.000       0.000       0.000    
        0.000       0.000       0.000       0.000       0.000       0.000       0.000       0.000       0.000       0.000    
        0.000      5.2000E-02  5.2000E-02   0.000       0.000       0.000       0.000      5.2000E-02  6.5000E-02  6.5000E-02
       6.5000E-02  6.5000E-02  6.5000E-02  6.5000E-02  6.5000E-02  0.1300      0.1300      0.1300      6.5000E-02  6.5000E-02
       6.5000E-02  6.5000E-02  6.5000E-02  6.5000E-02  6.5000E-02  6.5000E-02  6.5000E-02  6.5000E-02  6.5000E-02  6.5000E-02
       6.5000E-02   0.000       0.000       0.000       0.000       0.000       0.000       0.000       0.000    
  13    0.000       0.000       0.000       0.000       0.000       0.000       0.000       0.000       0.000       0.000    
        0.000       0.000       0.000       0.000       0.000       0.000       0.000       0.000       0.000       0.000    
        0.000       0.000       0.000       0.000       0.000       0.000       0.000       0.000       0.000       0.000    
        0.000       0.000       0.000       0.000       0.000       0.000       0.000       0.000      5.2000E-02  5.2000E-02
       5.2000E-02  5.2000E-02  5.2000E-02  5.2000E-02  5.2000E-02  5.2000E-02  5.2000E-02  5.2000E-02  6.5000E-02  6.5000E-02
       6.5000E-02  6.5000E-02  6.5000E-02  6.5000E-02  6.5000E-02  0.1300      0.1300      0.1300      6.5000E-02  6.5000E-02
       6.5000E-02  6.5000E-02  6.5000E-02  6.5000E-02  6.5000E-02  6.5000E-02  6.5000E-02  6.5000E-02  6.5000E-02  6.5000E-02
       6.5000E-02  6.5000E-02   0.000       0.000       0.000       0.000       0.000       0.000       0.000    
  14    0.000       0.000       0.000       0.000       0.000       0.000       0.000       0.000       0.000       0.000    
        0.000       0.000       0.000       0.000       0.000       0.000       0.000       0.000       0.000       0.000    
        0.000       0.000       0.000       0.000       0.000       0.000       0.000       0.000       0.000       0.000    
        0.000       0.000       0.000       0.000       0.000       0.000       0.000       0.000      5.2000E-02  5.2000E-02
       5.2000E-02  5.2000E-02  5.2000E-02  5.2000E-02  6.5000E-02  6.5000E-02  6.5000E-02  6.5000E-02  6.5000E-02  6.5000E-02
       6.5000E-02  6.5000E-02  6.5000E-02  6.5000E-02  6.5000E-02  0.1300      0.1300      0.1300      0.1300      0.1300    
       6.5000E-02  6.5000E-02  6.5000E-02  6.5000E-02  6.5000E-02  6.5000E-02  6.5000E-02  0.1300      6.5000E-02  6.5000E-02
       6.5000E-02  6.5000E-02  6.5000E-02   0.000       0.000       0.000       0.000       0.000       0.000    
  15    0.000       0.000       0.000       0.000       0.000       0.000       0.000       0.000       0.000       0.000    
        0.000       0.000       0.000       0.000       0.000       0.000       0.000       0.000       0.000       0.000    
        0.000       0.000       0.000       0.000       0.000       0.000       0.000       0.000       0.000       0.000    
        0.000       0.000       0.000       0.000       0.000       0.000       0.000      5.2000E-02  5.2000E-02  5.2000E-02
       6.5000E-02  6.5000E-02  6.5000E-02  6.5000E-02  6.5000E-02  6.5000E-02  6.5000E-02  6.5000E-02  6.5000E-02  6.5000E-02
       6.5000E-02  6.5000E-02  6.5000E-02  6.5000E-02  6.5000E-02  6.5000E-02  0.1300      0.1300      0.1300      0.1300    
       0.1300      6.5000E-02  6.5000E-02  0.1300      0.1300      0.1300      0.1300      0.1300      0.1300      6.5000E-02
       6.5000E-02  6.5000E-02  3.9000E-02   0.000       0.000       0.000       0.000       0.000       0.000    
  16    0.000       0.000       0.000       0.000       0.000       0.000       0.000       0.000       0.000       0.000    
        0.000       0.000       0.000       0.000       0.000       0.000       0.000       0.000       0.000       0.000    
        0.000       0.000       0.000       0.000       0.000       0.000       0.000       0.000       0.000       0.000    
        0.000       0.000       0.000       0.000       0.000       0.000      5.2000E-02  5.2000E-02  5.2000E-02  5.2000E-02
       5.2000E-02  6.5000E-02  6.5000E-02  6.5000E-02  6.5000E-02  6.5000E-02  6.5000E-02  6.5000E-02  6.5000E-02  6.5000E-02
       6.5000E-02  6.5000E-02  6.5000E-02  6.5000E-02  6.5000E-02  6.5000E-02  0.1300      0.1300      0.1300      0.1300    
       0.1300      0.1300      0.1300      0.1300      0.1300      0.1300      0.1300      0.1300      0.1300      6.5000E-02
       6.5000E-02  6.5000E-02  3.9000E-02  3.9000E-02   0.000       0.000       0.000       0.000       0.000    
  17    0.000       0.000       0.000       0.000       0.000       0.000       0.000       0.000       0.000       0.000    
        0.000       0.000       0.000       0.000       0.000       0.000       0.000       0.000       0.000       0.000    
        0.000       0.000       0.000       0.000       0.000       0.000       0.000       0.000       0.000       0.000    
        0.000       0.000       0.000       0.000       0.000      5.2000E-02  5.2000E-02  5.2000E-02  5.2000E-02  5.2000E-02
       5.2000E-02  6.5000E-02  6.5000E-02  6.5000E-02  6.5000E-02  6.5000E-02  6.5000E-02  6.5000E-02  6.5000E-02  6.5000E-02
       6.5000E-02  6.5000E-02  6.5000E-02  6.5000E-02  6.5000E-02  6.5000E-02  0.1300      0.1300      0.1300      0.1300    
       0.1300      0.1300      0.1300      0.1300      0.1300      0.1300      0.1300      0.1300      0.1300      6.5000E-02
       6.5000E-02  6.5000E-02  3.9000E-02  3.9000E-02   0.000       0.000       0.000       0.000       0.000    
  18    0.000       0.000       0.000       0.000       0.000       0.000       0.000       0.000       0.000       0.000    
        0.000       0.000       0.000       0.000       0.000       0.000       0.000       0.000       0.000       0.000    
        0.000       0.000       0.000       0.000       0.000       0.000       0.000       0.000       0.000       0.000    
        0.000       0.000       0.000       0.000      5.2000E-02  5.2000E-02  5.2000E-02  5.2000E-02  5.2000E-02  5.2000E-02
       5.2000E-02  5.2000E-02  5.2000E-02  6.5000E-02  6.5000E-02  6.5000E-02  6.5000E-02  6.5000E-02  6.5000E-02  6.5000E-02
       6.5000E-02  6.5000E-02  6.5000E-02  6.5000E-02  6.5000E-02  6.5000E-02  0.1300      0.1300      0.1300      0.1300    
       0.1300      0.1300      0.1300      0.1300      0.1300      0.1300      0.1300      0.1300      0.1300      0.1300    
       6.5000E-02  6.5000E-02  6.5000E-02  3.9000E-02   0.000       0.000       0.000       0.000       0.000    
  19    0.000       0.000       0.000       0.000       0.000       0.000       0.000       0.000       0.000       0.000    
        0.000       0.000       0.000       0.000       0.000       0.000       0.000       0.000       0.000       0.000    
        0.000       0.000       0.000       0.000       0.000       0.000       0.000       0.000       0.000       0.000    
        0.000       0.000       0.000      5.2000E-02  5.2000E-02  5.2000E-02  5.2000E-02  5.2000E-02  5.2000E-02  5.2000E-02
       5.2000E-02  5.2000E-02  5.2000E-02  5.2000E-02  6.5000E-02  6.5000E-02  6.5000E-02  6.5000E-02  6.5000E-02  6.5000E-02
       6.5000E-02  6.5000E-02  6.5000E-02  6.5000E-02  6.5000E-02  6.5000E-02  6.5000E-02  0.1300      0.1300      0.1300    
       0.1300      0.1300      0.1300      0.1300      0.1300      0.1300      0.1300      0.1300      0.1300      0.1300    
       6.5000E-02  6.5000E-02  6.5000E-02  3.9000E-02   0.000       0.000       0.000       0.000       0.000    
  20    0.000       0.000       0.000       0.000       0.000       0.000       0.000       0.000       0.000       0.000    
        0.000       0.000       0.000       0.000       0.000       0.000       0.000       0.000       0.000       0.000    
        0.000       0.000       0.000       0.000       0.000       0.000       0.000       0.000       0.000       0.000    
        0.000       0.000       0.000      2.6000E-02  5.2000E-02  5.2000E-02  5.2000E-02  5.2000E-02  5.2000E-02  5.2000E-02
       5.2000E-02  5.2000E-02  5.2000E-02  5.2000E-02  6.5000E-02  6.5000E-02  6.5000E-02  6.5000E-02  6.5000E-02  6.5000E-02
       6.5000E-02  6.5000E-02  6.5000E-02  6.5000E-02  6.5000E-02  6.5000E-02  6.5000E-02  0.1300      0.1300      0.1300    
       0.1300      0.1300      0.1300      0.1300      0.1300      0.1300      0.1300      0.1300      0.1300      0.1300    
       6.5000E-02  6.5000E-02  6.5000E-02  3.9000E-02   0.000       0.000       0.000       0.000       0.000    
  21    0.000       0.000       0.000       0.000       0.000       0.000       0.000       0.000       0.000       0.000    
        0.000       0.000       0.000       0.000       0.000       0.000       0.000       0.000       0.000       0.000    
        0.000       0.000       0.000       0.000       0.000       0.000       0.000       0.000       0.000       0.000    
        0.000       0.000      2.6000E-02  2.6000E-02  5.2000E-02  2.6000E-02  5.2000E-02  5.2000E-02  5.2000E-02  5.2000E-02
       5.2000E-02  5.2000E-02  5.2000E-02  5.2000E-02  5.2000E-02  6.5000E-02  6.5000E-02  6.5000E-02  6.5000E-02  6.5000E-02
       6.5000E-02  6.5000E-02  6.5000E-02  6.5000E-02  6.5000E-02  6.5000E-02  6.5000E-02  6.5000E-02  0.1300      0.1300    
       0.1300      0.1300      0.1300      0.1300      0.1300      0.1300      0.1300      0.1300      0.1300      6.5000E-02
       6.5000E-02  6.5000E-02  6.5000E-02  3.9000E-02  3.9000E-02   0.000       0.000       0.000       0.000    
  22    0.000       0.000       0.000       0.000       0.000       0.000       0.000       0.000       0.000       0.000    
        0.000       0.000       0.000       0.000       0.000       0.000       0.000       0.000       0.000       0.000    
        0.000       0.000       0.000       0.000       0.000       0.000       0.000       0.000       0.000       0.000    
        0.000       0.000      2.6000E-02  2.6000E-02  2.6000E-02  2.6000E-02  5.2000E-02  5.2000E-02  5.2000E-02  5.2000E-02
       5.2000E-02  5.2000E-02  5.2000E-02  5.2000E-02  5.2000E-02  6.5000E-02  6.5000E-02  6.5000E-02  6.5000E-02  6.5000E-02
       6.5000E-02  6.5000E-02  6.5000E-02  6.5000E-02  6.5000E-02  6.5000E-02  6.5000E-02  6.5000E-02  6.5000E-02  6.5000E-02
       6.5000E-02  0.1300      0.1300      0.1300      0.1300      0.1300      0.1300      0.1300      0.1300      6.5000E-02
       6.5000E-02  6.5000E-02  6.5000E-02  6.5000E-02   0.000       0.000       0.000       0.000       0.000    
  23    0.000       0.000       0.000       0.000       0.000       0.000       0.000       0.000       0.000       0.000    
        0.000       0.000       0.000       0.000       0.000       0.000       0.000       0.000       0.000       0.000    
        0.000       0.000       0.000       0.000       0.000       0.000       0.000       0.000       0.000       0.000    
        0.000      2.6000E-02  2.6000E-02  2.6000E-02  2.6000E-02  5.2000E-02  5.2000E-02  5.2000E-02  5.2000E-02  5.2000E-02
       5.2000E-02  5.2000E-02  5.2000E-02  5.2000E-02  5.2000E-02  6.5000E-02  6.5000E-02  0.1300      6.5000E-02  6.5000E-02
       6.5000E-02  6.5000E-02  6.5000E-02  6.5000E-02  6.5000E-02  6.5000E-02  6.5000E-02  6.5000E-02  6.5000E-02  6.5000E-02
       6.5000E-02  6.5000E-02  0.1300      0.1300      0.1300      0.1300      0.1300      0.1300      0.1300      6.5000E-02
       6.5000E-02   0.000       0.000       0.000       0.000       0.000       0.000       0.000       0.000    
  24    0.000       0.000       0.000       0.000       0.000       0.000       0.000       0.000       0.000       0.000    
        0.000       0.000       0.000       0.000       0.000       0.000       0.000       0.000       0.000       0.000    
        0.000       0.000       0.000       0.000       0.000       0.000       0.000       0.000      2.6000E-02  2.6000E-02
       2.6000E-02  2.6000E-02  2.6000E-02  2.6000E-02  2.6000E-02  5.2000E-02  5.2000E-02  5.2000E-02  5.2000E-02  5.2000E-02
       5.2000E-02  5.2000E-02  5.2000E-02  5.2000E-02  5.2000E-02  6.5000E-02  6.5000E-02  0.1300      0.1300      6.5000E-02
       6.5000E-02  6.5000E-02  6.5000E-02  6.5000E-02  6.5000E-02  6.5000E-02  6.5000E-02  6.5000E-02  6.5000E-02  6.5000E-02
       6.5000E-02  6.5000E-02  6.5000E-02  0.1300      0.1300      0.1300      0.1300      0.1300      0.1300      6.5000E-02
       6.5000E-02   0.000       0.000       0.000       0.000       0.000       0.000       0.000       0.000    
  25    0.000       0.000       0.000       0.000       0.000       0.000       0.000       0.000       0.000       0.000    
        0.000       0.000       0.000       0.000       0.000       0.000       0.000       0.000       0.000       0.000    
        0.000       0.000       0.000       0.000       0.000       0.000       0.000      2.6000E-02  2.6000E-02  2.6000E-02
       2.6000E-02  2.6000E-02  2.6000E-02  2.6000E-02  5.2000E-02  5.2000E-02  5.2000E-02  5.2000E-02  5.2000E-02  5.2000E-02
       5.2000E-02  5.2000E-02  5.2000E-02  5.2000E-02  6.5000E-02  6.5000E-02  6.5000E-02  0.1300      0.1300      6.5000E-02
       6.5000E-02  6.5000E-02  6.5000E-02  6.5000E-02  6.5000E-02  6.5000E-02  6.5000E-02  6.5000E-02  6.5000E-02  6.5000E-02
       6.5000E-02  6.5000E-02  6.5000E-02  6.5000E-02  6.5000E-02  0.1300      0.1300      0.1300      0.1300      6.5000E-02
       6.5000E-02   0.000       0.000       0.000       0.000       0.000       0.000       0.000       0.000    
  26    0.000       0.000       0.000       0.000       0.000       0.000       0.000       0.000       0.000       0.000    
        0.000       0.000       0.000       0.000       0.000       0.000       0.000       0.000       0.000       0.000    
        0.000       0.000       0.000       0.000       0.000      2.6000E-02  2.6000E-02  2.6000E-02  2.6000E-02  2.6000E-02
       2.6000E-02  2.6000E-02  2.6000E-02  5.2000E-02  5.2000E-02  5.2000E-02  5.2000E-02  5.2000E-02  5.2000E-02  5.2000E-02
       5.2000E-02  5.2000E-02  6.5000E-02  6.5000E-02  6.5000E-02  6.5000E-02  6.5000E-02  6.5000E-02  0.1300      0.1300    
       0.1300      6.5000E-02  6.5000E-02  6.5000E-02  6.5000E-02  6.5000E-02  6.5000E-02  6.5000E-02  6.5000E-02  6.5000E-02
       6.5000E-02  6.5000E-02  6.5000E-02  6.5000E-02  6.5000E-02  0.1300      0.1300      0.1300      0.1300      6.5000E-02
       6.5000E-02   0.000       0.000       0.000       0.000       0.000       0.000       0.000       0.000    
  27    0.000       0.000       0.000       0.000       0.000       0.000       0.000       0.000       0.000       0.000    
        0.000       0.000       0.000       0.000       0.000       0.000       0.000       0.000       0.000       0.000    
        0.000       0.000       0.000       0.000      2.6000E-02  2.6000E-02  2.6000E-02  2.6000E-02  2.6000E-02  2.6000E-02
       2.6000E-02  2.6000E-02  5.2000E-02  5.2000E-02  5.2000E-02  5.2000E-02  5.2000E-02  5.2000E-02  5.2000E-02  5.2000E-02
       5.2000E-02  6.5000E-02  6.5000E-02  6.5000E-02  6.5000E-02  6.5000E-02  6.5000E-02  6.5000E-02  6.5000E-02  0.1300    
       0.1300      6.5000E-02  6.5000E-02  6.5000E-02  6.5000E-02  6.5000E-02  6.5000E-02  6.5000E-02  6.5000E-02  6.5000E-02
       6.5000E-02  6.5000E-02  6.5000E-02  6.5000E-02  6.5000E-02  0.1300      0.1300      0.1300      0.1300      0.1300    
       6.5000E-02   0.000       0.000       0.000       0.000       0.000       0.000       0.000       0.000    
  28    0.000       0.000       0.000       0.000       0.000       0.000       0.000       0.000       0.000       0.000    
        0.000       0.000       0.000       0.000       0.000       0.000       0.000       0.000       0.000       0.000    
        0.000       0.000       0.000      2.6000E-02  2.6000E-02  2.6000E-02  2.6000E-02  2.6000E-02  2.6000E-02  2.6000E-02
       2.6000E-02  5.2000E-02  5.2000E-02  5.2000E-02  5.2000E-02  5.2000E-02  5.2000E-02  5.2000E-02  6.5000E-02  6.5000E-02
       6.5000E-02  6.5000E-02  6.5000E-02  6.5000E-02  6.5000E-02  6.5000E-02  6.5000E-02  6.5000E-02  6.5000E-02  6.5000E-02
       0.1300      0.1300      6.5000E-02  6.5000E-02  6.5000E-02  6.5000E-02  6.5000E-02  6.5000E-02  6.5000E-02  6.5000E-02
       6.5000E-02  6.5000E-02  6.5000E-02  6.5000E-02  6.5000E-02  6.5000E-02  0.1300      0.1300      0.3900      0.1300    
       6.5000E-02  6.5000E-02   0.000       0.000       0.000       0.000       0.000       0.000       0.000    
  29    0.000       0.000       0.000       0.000       0.000       0.000       0.000       0.000       0.000       0.000    
        0.000       0.000       0.000       0.000       0.000       0.000       0.000       0.000       0.000       0.000    
        0.000      2.6000E-02  2.6000E-02  2.6000E-02  2.6000E-02  2.6000E-02  2.6000E-02  2.6000E-02  2.6000E-02  5.2000E-02
       5.2000E-02  5.2000E-02  5.2000E-02  5.2000E-02  5.2000E-02  5.2000E-02  5.2000E-02  6.5000E-02  6.5000E-02  6.5000E-02
       6.5000E-02  6.5000E-02  6.5000E-02  6.5000E-02  6.5000E-02  6.5000E-02  6.5000E-02  6.5000E-02  6.5000E-02  6.5000E-02
       0.1300      0.1300      6.5000E-02  6.5000E-02  6.5000E-02  6.5000E-02  6.5000E-02  6.5000E-02  6.5000E-02  6.5000E-02
       6.5000E-02  6.5000E-02  6.5000E-02  6.5000E-02  6.5000E-02  6.5000E-02  0.1300      0.1300      0.3900      0.1300    
       6.5000E-02  6.5000E-02   0.000       0.000       0.000       0.000       0.000       0.000       0.000    
  30    0.000       0.000       0.000       0.000       0.000       0.000       0.000       0.000       0.000       0.000    
        0.000       0.000       0.000       0.000       0.000       0.000       0.000       0.000       0.000      2.6000E-02
       2.6000E-02  2.6000E-02  2.6000E-02  2.6000E-02  2.6000E-02  2.6000E-02  2.6000E-02  5.2000E-02  5.2000E-02  5.2000E-02
       5.2000E-02  5.2000E-02  5.2000E-02  5.2000E-02  5.2000E-02  5.2000E-02  5.2000E-02  6.5000E-02  6.5000E-02  6.5000E-02
       6.5000E-02  6.5000E-02  6.5000E-02  6.5000E-02  6.5000E-02  6.5000E-02  6.5000E-02  6.5000E-02  6.5000E-02  6.5000E-02
       0.1300      0.1300      6.5000E-02  6.5000E-02  6.5000E-02  6.5000E-02  6.5000E-02  6.5000E-02  6.5000E-02  6.5000E-02
       6.5000E-02  6.5000E-02  6.5000E-02  6.5000E-02  6.5000E-02  6.5000E-02  0.1300      0.1300      0.3900      0.1300    
       6.5000E-02  6.5000E-02   0.000       0.000       0.000       0.000       0.000       0.000       0.000    
  31    0.000       0.000       0.000       0.000       0.000       0.000       0.000       0.000       0.000       0.000    
        0.000       0.000       0.000       0.000       0.000       0.000       0.000       0.000      2.6000E-02  2.6000E-02
       2.6000E-02  2.6000E-02  2.6000E-02  5.2000E-02  5.2000E-02  5.2000E-02  5.2000E-02  5.2000E-02  5.2000E-02  5.2000E-02
       5.2000E-02  5.2000E-02  5.2000E-02  5.2000E-02  5.2000E-02  5.2000E-02  6.5000E-02  6.5000E-02  6.5000E-02  6.5000E-02
       6.5000E-02  6.5000E-02  6.5000E-02  0.1300      6.5000E-02  6.5000E-02  6.5000E-02  6.5000E-02  6.5000E-02  6.5000E-02
       0.1300      0.1300      6.5000E-02  6.5000E-02  6.5000E-02  6.5000E-02  6.5000E-02  6.5000E-02  6.5000E-02  6.5000E-02
       6.5000E-02  6.5000E-02  6.5000E-02  6.5000E-02  6.5000E-02  6.5000E-02  0.1300      0.1300      0.3900      0.3900    
       6.5000E-02  6.5000E-02   0.000       0.000       0.000       0.000       0.000       0.000       0.000    
  32    0.000       0.000       0.000       0.000       0.000       0.000       0.000       0.000       0.000       0.000    
        0.000       0.000       0.000       0.000       0.000       0.000      2.6000E-02  2.6000E-02  2.6000E-02  2.6000E-02
       2.6000E-02  2.6000E-02  5.2000E-02  5.2000E-02  5.2000E-02  5.2000E-02  5.2000E-02  5.2000E-02  5.2000E-02  5.2000E-02
       5.2000E-02  5.2000E-02  5.2000E-02  5.2000E-02  5.2000E-02  5.2000E-02  6.5000E-02  6.5000E-02  0.3900      0.3900    
       0.3900      0.3900      0.3900      0.3900      6.5000E-02  6.5000E-02  6.5000E-02  6.5000E-02  6.5000E-02  6.5000E-02
       0.1300      0.1300      0.1300      6.5000E-02  6.5000E-02  6.5000E-02  6.5000E-02  6.5000E-02  6.5000E-02  6.5000E-02
       6.5000E-02  6.5000E-02  6.5000E-02  6.5000E-02  6.5000E-02  6.5000E-02  6.5000E-02  0.1300      0.1300      0.3900    
       0.1300      6.5000E-02   0.000       0.000       0.000       0.000       0.000       0.000       0.000    
  33    0.000       0.000       0.000       0.000       0.000       0.000       0.000       0.000       0.000       0.000    
        0.000       0.000       0.000       0.000       0.000      2.6000E-02  2.6000E-02  2.6000E-02  2.6000E-02  2.6000E-02
       2.6000E-02  2.6000E-02  5.2000E-02  5.2000E-02  5.2000E-02  5.2000E-02  5.2000E-02  5.2000E-02  5.2000E-02  5.2000E-02
       5.2000E-02  5.2000E-02  5.2000E-02  5.2000E-02  6.5000E-02  6.5000E-02  6.5000E-02  0.3900      0.3900      0.3900    
       0.3900      0.3900      0.3900      0.3900      0.3900      6.5000E-02  6.5000E-02  6.5000E-02  6.5000E-02  6.5000E-02
       0.1300      0.1300      0.1300      0.1300      0.1300      0.1300      6.5000E-02  6.5000E-02  6.5000E-02  6.5000E-02
       6.5000E-02  6.5000E-02  6.5000E-02  6.5000E-02  6.5000E-02  6.5000E-02  6.5000E-02  0.1300      0.1300      0.3900    
       0.1300      6.5000E-02  6.5000E-02   0.000       0.000       0.000       0.000       0.000       0.000    
  34    0.000       0.000       0.000       0.000       0.000       0.000       0.000       0.000       0.000       0.000    
        0.000       0.000       0.000       0.000      2.6000E-02  2.6000E-02  2.6000E-02  2.6000E-02  2.6000E-02  2.6000E-02
       2.6000E-02  2.6000E-02  5.2000E-02  5.2000E-02  5.2000E-02  5.2000E-02  5.2000E-02  0.1300      5.2000E-02  5.2000E-02
       5.2000E-02  5.2000E-02  5.2000E-02  5.2000E-02  6.5000E-02  6.5000E-02  0.3900      0.3900      0.3900      0.3900    
       0.3900      0.1300      0.1300      0.3900      0.3900      0.3900      0.3900      0.3900      0.3900      0.1300    
       0.1300      0.1300      0.3900      0.3900      0.3900      0.1300      6.5000E-02  6.5000E-02  6.5000E-02  6.5000E-02
       6.5000E-02  6.5000E-02  6.5000E-02  6.5000E-02  6.5000E-02  6.5000E-02  6.5000E-02  0.1300      0.1300      0.1300    
       6.5000E-02  5.2000E-02  5.2000E-02   0.000       0.000       0.000       0.000       0.000       0.000    
  35    0.000       0.000       0.000       0.000       0.000       0.000       0.000       0.000       0.000       0.000    
        0.000       0.000       0.000      2.6000E-02  2.6000E-02  2.6000E-02  2.6000E-02  2.6000E-02  5.2000E-02  5.2000E-02
       5.2000E-02  5.2000E-02  5.2000E-02  5.2000E-02  0.1300      0.1300      0.1300      0.1300      0.1300      0.1300    
       5.2000E-02  5.2000E-02  0.1300      0.1300      0.3900      0.3900      0.3900      0.3900      0.1300      0.1300    
       0.1300      0.1300      0.1300      0.1300      0.3900      0.3900      0.3900      0.3900      0.3900      0.3900    
       0.3900      0.3900      0.3900      0.3900      0.3900      0.3900      6.5000E-02  6.5000E-02  6.5000E-02  6.5000E-02
       6.5000E-02  6.5000E-02  6.5000E-02  6.5000E-02  6.5000E-02  6.5000E-02  6.5000E-02  0.1300      0.1300      6.5000E-02
       6.5000E-02  5.2000E-02  2.6000E-02  2.6000E-02   0.000       0.000       0.000       0.000       0.000    
  36    0.000       0.000       0.000       0.000       0.000       0.000       0.000       0.000       0.000       0.000    
        0.000       0.000       0.000      2.6000E-02  2.6000E-02  2.6000E-02  2.6000E-02  5.2000E-02  5.2000E-02  5.2000E-02
       5.2000E-02  5.2000E-02  5.2000E-02  5.2000E-02  0.1300      0.1300      0.1300      0.1300      0.3900      0.3900    
       0.3900      0.3900      0.3900      0.3900      0.3900      0.3900      0.3900      0.3900      0.1300      0.1300    
       0.1300      0.1300      0.1300      0.1300      0.3900      0.3900      0.3900      0.3900      0.3900      0.3900    
       0.3900      0.3900      0.3900      0.3900      0.3900      0.3900      0.3900      0.1300      0.1300      6.5000E-02
       6.5000E-02  6.5000E-02  0.1300      0.1300      6.5000E-02  6.5000E-02  6.5000E-02  0.1300      0.1300      6.5000E-02
       6.5000E-02  6.5000E-02  2.6000E-02  2.6000E-02  2.6000E-02   0.000       0.000       0.000       0.000    
  37    0.000       0.000       0.000       0.000       0.000       0.000       0.000       0.000       0.000       0.000    
        0.000       0.000      2.6000E-02  2.6000E-02  2.6000E-02  2.6000E-02  5.2000E-02  5.2000E-02  5.2000E-02  5.2000E-02
       5.2000E-02  5.2000E-02  5.2000E-02  0.1300      0.3900      0.3900      0.3900      0.3900      0.3900      0.3900    
       0.3900      0.3900      0.3900      0.3900      0.3900      0.3900      0.3900      0.3900      6.5000E-02  6.5000E-02
       6.5000E-02  6.5000E-02  0.1300      0.3900      0.3900      0.3900      0.3900      0.3900      0.3900      0.3900    
       0.3900      0.3900      0.3900      0.3900      0.3900      0.3900      0.3900      0.3900      0.3900      0.3900    
       0.3900      0.3900      0.1300      0.1300      0.1300      0.1300      0.1300      0.1300      0.1300      0.1300    
       6.5000E-02  6.5000E-02  5.2000E-02  2.6000E-02  2.6000E-02   0.000       0.000       0.000       0.000    
  38    0.000       0.000       0.000       0.000       0.000       0.000       0.000       0.000       0.000       0.000    
       5.2000E-02  5.2000E-02  2.6000E-02  5.2000E-02  5.2000E-02  5.2000E-02  5.2000E-02  5.2000E-02  0.1300      0.1300    
       0.1300      0.1300      0.1300      0.1300      0.1300      0.3900      0.3900      0.3900      0.1300      0.1300    
       0.3900      0.3900      0.3900      0.3900      0.3900      0.3900      0.3900      0.3900      6.5000E-02  6.5000E-02
       6.5000E-02  6.5000E-02  0.1300      0.3900      0.3900      0.3900      6.5000E-02  0.1300      0.1300      0.1300    
       0.1300      0.1300      0.3900      0.3900      0.3900      0.3900      0.3900      0.3900      0.3900      0.3900    
       0.3900      0.3900      0.3900      0.3900      0.3900      0.3900      0.3900      0.3900      0.3900      0.1300    
       0.1300      6.5000E-02  5.2000E-02  2.6000E-02  2.6000E-02  5.2000E-02   0.000       0.000       0.000    
  39    0.000       0.000       0.000       0.000       0.000       0.000       0.000      2.6000E-02  2.6000E-02  5.2000E-02
       5.2000E-02  5.2000E-02  5.2000E-02  5.2000E-02  0.1300      0.1300      0.1300      0.1300      0.1300      0.1300    
       0.1300      0.1300      0.1300      6.5000E-02  6.5000E-02  6.5000E-02  6.5000E-02  6.5000E-02  0.1300      0.3900    
       0.3900      0.3900      0.3900      0.3900      0.3900      0.3900      0.3900      0.3900      6.5000E-02  6.5000E-02
       6.5000E-02  6.5000E-02  6.5000E-02  0.3900      0.3900      6.5000E-02  6.5000E-02  6.5000E-02  0.1300      0.1300    
       0.1300      0.1300      0.1300      0.1300      0.1300      0.1300      0.1300      0.1300      0.1300      0.3900    
       0.3900      0.3900      0.3900      0.3900      0.3900      0.3900      0.3900      0.3900      0.3900      0.3900    
       0.3900      0.3900      0.1300      5.2000E-02  5.2000E-02   1.170       0.000       0.000       0.000    
  40    0.000       0.000       0.000       0.000       0.000       0.000      2.6000E-02  2.6000E-02  2.6000E-02  5.2000E-02
       5.2000E-02  5.2000E-02  0.1300      0.1300      0.1300      0.1300      0.1300      0.1300      5.2000E-02  5.2000E-02
       5.2000E-02  5.2000E-02  6.5000E-02  6.5000E-02  6.5000E-02  6.5000E-02  6.5000E-02  6.5000E-02  0.3900      0.3900    
       0.3900      0.3900      0.3900      0.3900      0.3900      0.3900      0.3900      0.3900      6.5000E-02  6.5000E-02
       6.5000E-02  6.5000E-02  6.5000E-02  0.3900      0.3900      6.5000E-02  6.5000E-02  6.5000E-02  6.5000E-02  0.1300    
       0.1300      0.1300      0.1300      0.1300      0.1300      0.1300      6.5000E-02  6.5000E-02  0.1300      0.3900    
       0.3900      0.1300      0.1300      0.1300      0.1300      0.3900      0.3900      0.3900      0.3900      0.3900    
       0.3900      0.3900      0.3900      0.3900      0.3900       1.170       0.000       0.000       0.000    
  41    0.000       0.000       0.000       0.000       0.000      2.6000E-02  2.6000E-02  2.6000E-02  5.2000E-02  5.2000E-02
       5.2000E-02  5.2000E-02  0.1300      0.1300      5.2000E-02  5.2000E-02  5.2000E-02  5.2000E-02  5.2000E-02  5.2000E-02
       5.2000E-02  6.5000E-02  6.5000E-02  6.5000E-02  6.5000E-02  6.5000E-02  6.5000E-02  6.5000E-02  0.3900      0.3900    
       0.1300      0.1300      0.1300      0.3900      0.3900      0.3900      0.3900      0.3900      6.5000E-02  6.5000E-02
       6.5000E-02  6.5000E-02  6.5000E-02  0.3900      0.3900      0.3900      6.5000E-02  6.5000E-02  6.5000E-02  0.1300    
       0.1300      0.1300      5.2000E-02  5.2000E-02  5.2000E-02  5.2000E-02  6.5000E-02  6.5000E-02  6.5000E-02  0.3900    
       0.3900      0.1300      6.5000E-02  0.1300      0.1300      0.1300      6.5000E-02  6.5000E-02  0.3900      0.3900    
       0.3900      0.3900      0.3900      0.3900      0.3900       0.000       0.000       0.000       0.000    
  42    0.000       0.000       0.000       0.000       0.000      2.6000E-02  2.6000E-02  2.6000E-02  5.2000E-02  5.2000E-02
       5.2000E-02  5.2000E-02  5.2000E-02  5.2000E-02  5.2000E-02  5.2000E-02  5.2000E-02  5.2000E-02  5.2000E-02  6.5000E-02
       6.5000E-02  6.5000E-02  6.5000E-02  0.3900      0.3900      0.3900      0.3900      0.3900      0.3900      0.1300    
       0.1300      0.1300      0.1300      0.1300      0.3900      0.3900      0.3900      0.3900      6.5000E-02  6.5000E-02
       6.5000E-02  6.5000E-02  6.5000E-02  0.1300      0.3900      0.3900      6.5000E-02  6.5000E-02  6.5000E-02  6.5000E-02
       5.2000E-02  5.2000E-02  5.2000E-02  5.2000E-02  5.2000E-02  5.2000E-02  5.2000E-02  6.5000E-02  6.5000E-02  0.3900    
       0.3900      0.1300      6.5000E-02  6.5000E-02  6.5000E-02  6.5000E-02  6.5000E-02  6.5000E-02  6.5000E-02  0.1300    
       0.3900      0.3900      0.3900      0.3900      0.3900       0.000       0.000       0.000       0.000    
  43    0.000       0.000       0.000       0.000       0.000      2.6000E-02  2.6000E-02  2.6000E-02  5.2000E-02  5.2000E-02
       5.2000E-02  5.2000E-02  5.2000E-02  5.2000E-02  5.2000E-02  5.2000E-02  5.2000E-02  5.2000E-02  5.2000E-02  6.5000E-02
       6.5000E-02  6.5000E-02  0.3900      0.3900      0.3900      0.1300      0.1300      0.1300      0.1300      0.1300    
       0.1300      0.1300      0.1300      0.1300      0.3900      0.3900      0.3900      6.5000E-02  6.5000E-02  6.5000E-02
       6.5000E-02  6.5000E-02  6.5000E-02  0.1300      0.3900      0.3900      6.5000E-02  6.5000E-02  6.5000E-02  6.5000E-02
       5.2000E-02  5.2000E-02  5.2000E-02  5.2000E-02  5.2000E-02  5.2000E-02  5.2000E-02  6.5000E-02  6.5000E-02  0.3900    
       0.3900      6.5000E-02  6.5000E-02  6.5000E-02  6.5000E-02  6.5000E-02  6.5000E-02  6.5000E-02  6.5000E-02  0.1300    
       0.3900      0.3900      0.3900      0.3900      0.1300       0.000       0.000       0.000       0.000    
  44    0.000       0.000       0.000       0.000       0.000      2.6000E-02  2.6000E-02  2.6000E-02  2.6000E-02  5.2000E-02
       5.2000E-02  5.2000E-02  5.2000E-02  5.2000E-02  5.2000E-02  6.5000E-02  6.5000E-02  6.5000E-02  6.5000E-02  0.1300    
       0.1300      0.3900      0.3900      0.1300      0.1300      0.1300      0.1300      0.1300      0.1300      0.1300    
       0.1300      0.1300      0.1300      0.1300      0.3900      0.3900      0.3900      6.5000E-02  6.5000E-02  6.5000E-02
       6.5000E-02  6.5000E-02  5.2000E-02  5.2000E-02  0.3900      0.3900      6.5000E-02  6.5000E-02  6.5000E-02  6.5000E-02
       6.5000E-02  5.2000E-02  2.6000E-02  2.6000E-02  2.6000E-02  5.2000E-02  5.2000E-02  6.5000E-02  6.5000E-02  0.1300    
       0.3900      6.5000E-02  6.5000E-02  6.5000E-02  6.5000E-02  6.5000E-02  6.5000E-02  6.5000E-02  6.5000E-02  0.1300    
       0.1300      0.3900      0.3900      0.1300      0.1300       0.000       0.000       0.000       0.000    
  45    0.000       0.000       0.000      2.6000E-02  2.6000E-02  2.6000E-02  2.6000E-02  2.6000E-02  5.2000E-02  5.2000E-02
       5.2000E-02  5.2000E-02  5.2000E-02  5.2000E-02  0.1300      0.1300      0.1300      0.1300      0.1300      0.3900    
       0.3900      0.3900      0.1300      0.1300      0.1300      0.1300      0.1300      0.1300      0.1300      0.1300    
       0.1300      0.1300      0.1300      0.1300      0.3900      0.3900      0.3900      0.1300      5.2000E-02  5.2000E-02
       5.2000E-02  5.2000E-02  5.2000E-02  5.2000E-02  0.3900      0.3900      6.5000E-02  6.5000E-02  2.6000E-02  2.6000E-02
       2.6000E-02  2.6000E-02  2.6000E-02  2.6000E-02  2.6000E-02  5.2000E-02  5.2000E-02  6.5000E-02  6.5000E-02  0.1300    
       0.3900      6.5000E-02  6.5000E-02  6.5000E-02  6.5000E-02  6.5000E-02  6.5000E-02  6.5000E-02  6.5000E-02  0.1300    
       0.1300      0.3900      0.3900      6.5000E-02  5.2000E-02   0.000       0.000       0.000       0.000    
  46    0.000       0.000       0.000      2.6000E-02  2.6000E-02  2.6000E-02  2.6000E-02  2.6000E-02  5.2000E-02  5.2000E-02
       5.2000E-02  0.1300      0.1300      0.1300      0.1300      0.1300      0.3900      0.3900      0.3900      0.3900    
       0.3900      0.1300      0.1300      0.1300      0.1300      0.1300      0.1300      0.1300      0.1300      0.1300    
       0.1300      0.1300      0.1300      0.1300      0.3900      0.3900      0.3900      6.5000E-02  5.2000E-02  5.2000E-02
       5.2000E-02  5.2000E-02  5.2000E-02  5.2000E-02  0.3900      0.3900      6.5000E-02  6.5000E-02  2.6000E-02  2.6000E-02
       2.6000E-02  2.6000E-02  2.6000E-02  2.6000E-02  2.6000E-02  5.2000E-02  5.2000E-02  6.5000E-02  6.5000E-02  0.1300    
       0.1300      6.5000E-02  6.5000E-02  6.5000E-02  6.5000E-02  6.5000E-02  6.5000E-02  6.5000E-02  6.5000E-02  0.1300    
       0.1300      0.3900      0.1300      6.5000E-02  6.5000E-02   0.000       0.000       0.000       0.000    
  47    0.000       0.000       0.000      2.6000E-02  2.6000E-02  2.6000E-02  2.6000E-02  5.2000E-02  5.2000E-02  5.2000E-02
       5.2000E-02  0.1300      0.1300      0.1300      0.3900      0.3900      0.3900      0.1300      0.1300      0.1300    
       0.1300      0.1300      0.1300      0.1300      0.1300      0.1300      0.1300      0.1300      0.1300      6.5000E-02
       0.1300      0.1300      0.1300      0.1300      0.3900      0.3900      0.3900      6.5000E-02  5.2000E-02  5.2000E-02
       5.2000E-02  5.2000E-02  5.2000E-02  5.2000E-02  0.3900      0.3900      6.5000E-02  6.5000E-02  2.6000E-02  2.6000E-02
       2.6000E-02  2.6000E-02  2.6000E-02  2.6000E-02  2.6000E-02  5.2000E-02  5.2000E-02  5.2000E-02  6.5000E-02  6.5000E-02
       0.1300      6.5000E-02  6.5000E-02  6.5000E-02  6.5000E-02  6.5000E-02  6.5000E-02  6.5000E-02  6.5000E-02  0.1300    
       0.1300      0.3900      0.1300      6.5000E-02  6.5000E-02   0.000       0.000       0.000       0.000    
  48    0.000       0.000       0.000      2.6000E-02  2.6000E-02  2.6000E-02  2.6000E-02  5.2000E-02  5.2000E-02  5.2000E-02
       5.2000E-02  0.1300      0.3900      0.3900      0.3900      0.1300      0.1300      0.1300      0.1300      0.1300    
       0.1300      0.1300      0.1300      0.1300      6.5000E-02  6.5000E-02  6.5000E-02  6.5000E-02  6.5000E-02  6.5000E-02
       0.1300      0.1300      0.1300      0.1300      0.3900      0.3900      0.3900      0.3900      5.2000E-02  5.2000E-02
       5.2000E-02  5.2000E-02  5.2000E-02  5.2000E-02  0.3900      0.3900      6.5000E-02  6.5000E-02  6.5000E-02  2.6000E-02
       2.6000E-02  2.6000E-02  2.6000E-02  2.6000E-02  2.6000E-02  2.6000E-02  5.2000E-02  5.2000E-02  6.5000E-02  6.5000E-02
       0.1300      0.1300      6.5000E-02  6.5000E-02  6.5000E-02  6.5000E-02  6.5000E-02  6.5000E-02  6.5000E-02  0.1300    
       0.3900      0.3900      0.1300      6.5000E-02  6.5000E-02  6.5000E-02   0.000       0.000       0.000    
  49    0.000       0.000       0.000      2.6000E-02  2.6000E-02  2.6000E-02  2.6000E-02  5.2000E-02  5.2000E-02  5.2000E-02
       0.1300      0.3900      0.3900      0.1300      0.1300      0.1300      0.1300      0.1300      0.1300      6.5000E-02
       6.5000E-02  6.5000E-02  6.5000E-02  6.5000E-02  6.5000E-02  6.5000E-02  6.5000E-02  6.5000E-02  6.5000E-02  6.5000E-02
       0.1300      0.1300      0.1300      0.1300      0.3900      0.3900      0.3900      0.3900      0.3900      5.2000E-02
       5.2000E-02  5.2000E-02  5.2000E-02  5.2000E-02  5.2000E-02  0.3900      0.3900      0.1300      6.5000E-02  2.6000E-02
       2.6000E-02  2.6000E-02  2.6000E-02  2.6000E-02  2.6000E-02  2.6000E-02  5.2000E-02  5.2000E-02  6.5000E-02  6.5000E-02
       0.1300      0.1300      6.5000E-02  6.5000E-02  6.5000E-02  6.5000E-02  6.5000E-02  6.5000E-02  6.5000E-02  0.1300    
       0.3900      0.3900      0.1300      6.5000E-02  6.5000E-02  6.5000E-02   0.000       0.000       0.000    
  50    0.000       0.000       0.000      2.6000E-02  2.6000E-02  2.6000E-02  5.2000E-02  5.2000E-02  5.2000E-02  5.2000E-02
       0.3900      0.3900      0.3900      0.3900      0.1300      6.5000E-02  6.5000E-02  6.5000E-02  6.5000E-02  6.5000E-02
       6.5000E-02  6.5000E-02  6.5000E-02  6.5000E-02  6.5000E-02  6.5000E-02  6.5000E-02  6.5000E-02  6.5000E-02  6.5000E-02
       6.5000E-02  0.1300      0.1300      0.1300      0.1300      0.3900      0.3900      0.3900      0.3900      0.3900    
       5.2000E-02  5.2000E-02  5.2000E-02  5.2000E-02  5.2000E-02  5.2000E-02  0.3900      0.3900      0.1300      2.6000E-02
       2.6000E-02  2.6000E-02  2.6000E-02  2.6000E-02  2.6000E-02  2.6000E-02  5.2000E-02  5.2000E-02  6.5000E-02  6.5000E-02
       0.1300      0.1300      6.5000E-02  6.5000E-02  6.5000E-02  6.5000E-02  6.5000E-02  6.5000E-02  6.5000E-02  0.1300    
       0.3900      0.3900      0.1300      0.1300      6.5000E-02  6.5000E-02   0.000       0.000       0.000    
  51    0.000       0.000       0.000      2.6000E-02  2.6000E-02  5.2000E-02  5.2000E-02  5.2000E-02  5.2000E-02  0.3900    
       0.3900      0.3900      0.3900      0.1300      0.1300      5.2000E-02  5.2000E-02  6.5000E-02  6.5000E-02  6.5000E-02
       6.5000E-02  6.5000E-02  6.5000E-02  6.5000E-02  6.5000E-02  6.5000E-02  6.5000E-02  6.5000E-02  6.5000E-02  6.5000E-02
       6.5000E-02  0.1300      0.1300      0.1300      0.1300      0.3900      0.3900      0.3900      0.3900      0.3900    
       5.2000E-02  5.2000E-02  5.2000E-02  5.2000E-02  5.2000E-02  5.2000E-02  0.3900      0.3900      0.3900      2.6000E-02
       2.6000E-02  2.6000E-02  2.6000E-02  2.6000E-02  2.6000E-02  2.6000E-02  5.2000E-02  5.2000E-02  6.5000E-02  6.5000E-02
       0.1300      0.1300      0.1300      6.5000E-02  6.5000E-02  6.5000E-02  6.5000E-02  6.5000E-02  6.5000E-02  0.1300    
       0.3900      0.3900      0.1300      0.1300      6.5000E-02  6.5000E-02   0.000       0.000       0.000    
  52    0.000       0.000      2.6000E-02  2.6000E-02  2.6000E-02  5.2000E-02  5.2000E-02  5.2000E-02  5.2000E-02  0.3900    
       0.3900      0.3900      0.1300      5.2000E-02  5.2000E-02  5.2000E-02  5.2000E-02  5.2000E-02  5.2000E-02  6.5000E-02
       6.5000E-02  6.5000E-02  6.5000E-02  6.5000E-02  6.5000E-02  6.5000E-02  6.5000E-02  6.5000E-02  6.5000E-02  6.5000E-02
       6.5000E-02  0.1300      0.1300      0.1300      0.1300      0.3900      0.3900      0.3900      0.3900      0.3900    
       5.2000E-02  5.2000E-02  5.2000E-02  5.2000E-02  5.2000E-02  5.2000E-02  5.2000E-02  0.3900      0.3900      2.6000E-02
       2.6000E-02  2.6000E-02  2.6000E-02  2.6000E-02  2.6000E-02  2.6000E-02  5.2000E-02  5.2000E-02  5.2000E-02  6.5000E-02
       0.1300      0.1300      0.1300      6.5000E-02  6.5000E-02  6.5000E-02  6.5000E-02  6.5000E-02  6.5000E-02  0.1300    
       0.3900      0.3900      0.3900      0.1300      6.5000E-02  6.5000E-02   0.000       0.000       0.000    
  53    0.000       0.000      2.6000E-02  2.6000E-02  2.6000E-02  5.2000E-02  5.2000E-02  5.2000E-02  0.3900      0.3900    
       0.3900      0.1300      5.2000E-02  5.2000E-02  5.2000E-02  5.2000E-02  5.2000E-02  5.2000E-02  5.2000E-02  5.2000E-02
       5.2000E-02  6.5000E-02  6.5000E-02  6.5000E-02  6.5000E-02  6.5000E-02  6.5000E-02  6.5000E-02  6.5000E-02  6.5000E-02
       6.5000E-02  0.1300      0.1300      0.1300      0.1300      0.3900      0.3900      0.3900      0.3900      5.2000E-02
       5.2000E-02  5.2000E-02  5.2000E-02  5.2000E-02  5.2000E-02  5.2000E-02  5.2000E-02  0.3900      0.1300      0.3900    
       2.6000E-02  2.6000E-02  2.6000E-02  2.6000E-02  2.6000E-02  2.6000E-02  2.6000E-02  5.2000E-02  5.2000E-02  6.5000E-02
       0.1300      0.1300      0.1300      6.5000E-02  6.5000E-02  6.5000E-02  6.5000E-02  6.5000E-02  6.5000E-02  0.1300    
       0.1300      0.3900      0.3900      0.1300      6.5000E-02  6.5000E-02  6.5000E-02   0.000       0.000    
  54    0.000       0.000      2.6000E-02  2.6000E-02  2.6000E-02  5.2000E-02  5.2000E-02  5.2000E-02  0.3900      0.3900    
       0.3900      5.2000E-02  5.2000E-02  5.2000E-02  5.2000E-02  5.2000E-02  5.2000E-02  5.2000E-02  5.2000E-02  5.2000E-02
       5.2000E-02  6.5000E-02  6.5000E-02  6.5000E-02  6.5000E-02  6.5000E-02  6.5000E-02  6.5000E-02  6.5000E-02  6.5000E-02
       6.5000E-02  0.1300      0.1300      0.1300      0.1300      0.3900      0.3900      0.3900      0.3900      6.5000E-02
       5.2000E-02  5.2000E-02  5.2000E-02  2.6000E-02  2.6000E-02  2.6000E-02  5.2000E-02  0.1300      0.1300      0.1300    
       2.6000E-02  2.6000E-02  2.6000E-02  2.6000E-02  2.6000E-02  2.6000E-02  2.6000E-02  5.2000E-02  5.2000E-02  6.5000E-02
       0.1300      0.1300      0.1300      6.5000E-02  6.5000E-02  6.5000E-02  6.5000E-02  6.5000E-02  6.5000E-02  0.1300    
       0.1300      0.1300      0.1300      0.1300      6.5000E-02  6.5000E-02  6.5000E-02   0.000       0.000    
  55    0.000      2.6000E-02  2.6000E-02  2.6000E-02  5.2000E-02  5.2000E-02  5.2000E-02  0.1300      0.1300      0.1300    
       0.1300      5.2000E-02  5.2000E-02  5.2000E-02  5.2000E-02  5.2000E-02  5.2000E-02  5.2000E-02  5.2000E-02  5.2000E-02
       5.2000E-02  5.2000E-02  6.5000E-02  6.5000E-02  6.5000E-02  6.5000E-02  6.5000E-02  6.5000E-02  6.5000E-02  6.5000E-02
       6.5000E-02  6.5000E-02  0.1300      0.1300      0.1300      0.3900      0.3900      0.3900      0.3900      6.5000E-02
       5.2000E-02  2.6000E-02  2.6000E-02  2.6000E-02  2.6000E-02  2.6000E-02  5.2000E-02  0.1300      0.1300      0.1300    
       2.6000E-02  2.6000E-02  2.6000E-02  2.6000E-02  2.6000E-02  2.6000E-02  2.6000E-02  5.2000E-02  5.2000E-02  6.5000E-02
       0.1300      0.1300      0.1300      6.5000E-02  6.5000E-02  6.5000E-02  6.5000E-02  6.5000E-02  6.5000E-02  0.1300    
       0.1300      0.1300      0.1300      0.1300      0.1300      6.5000E-02  6.5000E-02   0.000       0.000    
  56    0.000      2.6000E-02  2.6000E-02  5.2000E-02  5.2000E-02  5.2000E-02  0.1300      0.1300      0.1300      0.1300    
       0.1300      5.2000E-02  5.2000E-02  5.2000E-02  5.2000E-02  5.2000E-02  5.2000E-02  5.2000E-02  5.2000E-02  5.2000E-02
       5.2000E-02  5.2000E-02  5.2000E-02  6.5000E-02  6.5000E-02  6.5000E-02  6.5000E-02  6.5000E-02  6.5000E-02  6.5000E-02
       6.5000E-02  6.5000E-02  0.1300      0.1300      0.1300      0.3900      0.3900      0.3900      0.3900      6.5000E-02
       5.2000E-02  2.6000E-02  2.6000E-02  2.6000E-02  2.6000E-02  2.6000E-02  5.2000E-02  0.1300      0.1300      0.1300    
       2.6000E-02  2.6000E-02  2.6000E-02  2.6000E-02  2.6000E-02  2.6000E-02  2.6000E-02  5.2000E-02  5.2000E-02  6.5000E-02
       0.1300      0.1300      0.1300      6.5000E-02  6.5000E-02  5.2000E-02  5.2000E-02  5.2000E-02  6.5000E-02  6.5000E-02
       0.1300      0.1300      0.1300      0.1300      0.1300      6.5000E-02  6.5000E-02   0.000       0.000    
  57   2.6000E-02  2.6000E-02  5.2000E-02  5.2000E-02  5.2000E-02  0.1300      0.1300      0.1300      0.1300      5.2000E-02
       5.2000E-02  5.2000E-02  5.2000E-02  5.2000E-02  5.2000E-02  5.2000E-02  5.2000E-02  5.2000E-02  5.2000E-02  5.2000E-02
       5.2000E-02  5.2000E-02  5.2000E-02  5.2000E-02  5.2000E-02  5.2000E-02  6.5000E-02  6.5000E-02  6.5000E-02  6.5000E-02
       6.5000E-02  6.5000E-02  0.1300      0.1300      0.1300      0.3900      0.3900      0.3900      6.5000E-02  6.5000E-02
       5.2000E-02  2.6000E-02  2.6000E-02  2.6000E-02  2.6000E-02  2.6000E-02  5.2000E-02  0.1300      0.1300      0.1300    
       2.6000E-02  2.6000E-02  2.6000E-02  2.6000E-02  2.6000E-02  2.6000E-02  2.6000E-02  5.2000E-02  5.2000E-02  5.2000E-02
       6.5000E-02  0.1300      0.1300      6.5000E-02  6.5000E-02  5.2000E-02  5.2000E-02  5.2000E-02  6.5000E-02  6.5000E-02
       0.1300      0.1300      6.5000E-02  6.5000E-02  6.5000E-02  6.5000E-02  6.5000E-02   0.000       0.000    
  58   2.6000E-02  2.6000E-02  5.2000E-02  5.2000E-02  5.2000E-02  0.1300      5.2000E-02  5.2000E-02  5.2000E-02  5.2000E-02
       5.2000E-02  5.2000E-02  5.2000E-02  5.2000E-02  5.2000E-02  5.2000E-02  2.6000E-02  5.2000E-02  5.2000E-02  5.2000E-02
       5.2000E-02  5.2000E-02  5.2000E-02  5.2000E-02  5.2000E-02  5.2000E-02  5.2000E-02  6.5000E-02  6.5000E-02  6.5000E-02
       6.5000E-02  6.5000E-02  0.1300      0.1300      0.1300      0.3900      0.3900      0.3900      6.5000E-02  6.5000E-02
       5.2000E-02  2.6000E-02  2.6000E-02  2.6000E-02  2.6000E-02  2.6000E-02  2.6000E-02  5.2000E-02  0.1300      0.1300    
       0.1300      6.5000E-02  5.2000E-02  2.6000E-02  2.6000E-02  2.6000E-02  2.6000E-02  5.2000E-02  5.2000E-02  5.2000E-02
       6.5000E-02  0.1300      6.5000E-02  6.5000E-02  6.5000E-02  5.2000E-02  5.2000E-02  5.2000E-02  6.5000E-02  0.1300    
       0.1300      0.1300      6.5000E-02  6.5000E-02  6.5000E-02  6.5000E-02  6.5000E-02   0.000       0.000    
  59   2.6000E-02  2.6000E-02  5.2000E-02  5.2000E-02  5.2000E-02  5.2000E-02  5.2000E-02  5.2000E-02  5.2000E-02  5.2000E-02
       5.2000E-02  2.6000E-02  2.6000E-02  2.6000E-02  2.6000E-02  2.6000E-02  2.6000E-02  5.2000E-02  5.2000E-02  5.2000E-02
       5.2000E-02  5.2000E-02  5.2000E-02  5.2000E-02  5.2000E-02  5.2000E-02  5.2000E-02  5.2000E-02  6.5000E-02  6.5000E-02
       6.5000E-02  6.5000E-02  0.1300      0.1300      0.1300      0.1300      0.3900      0.3900      0.3900      6.5000E-02
       5.2000E-02  5.2000E-02  2.6000E-02  2.6000E-02  2.6000E-02  2.6000E-02  2.6000E-02  5.2000E-02  0.1300      5.2000E-02
       0.1300      6.5000E-02  5.2000E-02  2.6000E-02  2.6000E-02  2.6000E-02  2.6000E-02  5.2000E-02  5.2000E-02  5.2000E-02
       6.5000E-02  6.5000E-02  6.5000E-02  5.2000E-02  5.2000E-02  5.2000E-02  5.2000E-02  5.2000E-02  6.5000E-02  0.1300    
       0.1300      0.1300      6.5000E-02  6.5000E-02  6.5000E-02  6.5000E-02  6.5000E-02  6.5000E-02   0.000    
  60    0.000      2.6000E-02  2.6000E-02  5.2000E-02  5.2000E-02  5.2000E-02  2.6000E-02  2.6000E-02  2.6000E-02  2.6000E-02
       2.6000E-02  2.6000E-02  2.6000E-02   0.000       0.000       0.000      2.6000E-02  2.6000E-02  5.2000E-02  5.2000E-02
       5.2000E-02  5.2000E-02  5.2000E-02  5.2000E-02  5.2000E-02  5.2000E-02  5.2000E-02  5.2000E-02  5.2000E-02  6.5000E-02
       6.5000E-02  6.5000E-02  6.5000E-02  0.1300      0.1300      0.1300      0.3900      0.3900      0.3900      6.5000E-02
       5.2000E-02  5.2000E-02  2.6000E-02  2.6000E-02  2.6000E-02  2.6000E-02  2.6000E-02  5.2000E-02  5.2000E-02  5.2000E-02
       0.1300      6.5000E-02  5.2000E-02  2.6000E-02  5.2000E-02  5.2000E-02  5.2000E-02  5.2000E-02  5.2000E-02  6.5000E-02
       6.5000E-02  6.5000E-02  5.2000E-02  5.2000E-02  5.2000E-02  5.2000E-02  5.2000E-02  5.2000E-02  6.5000E-02  0.1300    
       0.1300      6.5000E-02  6.5000E-02  6.5000E-02  6.5000E-02  6.5000E-02  6.5000E-02  6.5000E-02  6.5000E-02
  61    0.000       0.000      2.6000E-02  2.6000E-02  2.6000E-02  2.6000E-02  2.6000E-02  2.6000E-02  2.6000E-02  2.6000E-02
       2.6000E-02   0.000       0.000       0.000       0.000       0.000       0.000      2.6000E-02  2.6000E-02  5.2000E-02
       5.2000E-02  5.2000E-02  5.2000E-02  5.2000E-02  5.2000E-02  5.2000E-02  5.2000E-02  5.2000E-02  5.2000E-02  5.2000E-02
       6.5000E-02  6.5000E-02  6.5000E-02  0.1300      0.1300      0.1300      0.3900      0.3900      0.3900      6.5000E-02
       5.2000E-02  5.2000E-02  2.6000E-02  2.6000E-02  2.6000E-02  2.6000E-02  2.6000E-02  2.6000E-02  5.2000E-02  5.2000E-02
       0.1300      0.1300      5.2000E-02  5.2000E-02  5.2000E-02  5.2000E-02  5.2000E-02  5.2000E-02  5.2000E-02  5.2000E-02
       5.2000E-02  5.2000E-02  5.2000E-02  5.2000E-02  5.2000E-02  5.2000E-02  5.2000E-02  5.2000E-02  6.5000E-02  0.1300    
       0.1300      6.5000E-02  6.5000E-02  6.5000E-02  6.5000E-02  6.5000E-02  6.5000E-02  6.5000E-02  6.5000E-02
  62    0.000       0.000       0.000      2.6000E-02   0.000       0.000       0.000       0.000       0.000       0.000    
        0.000       0.000       0.000       0.000       0.000       0.000       0.000       0.000       0.000      2.6000E-02
       5.2000E-02  5.2000E-02  5.2000E-02  5.2000E-02  5.2000E-02  5.2000E-02  5.2000E-02  5.2000E-02  5.2000E-02  5.2000E-02
       6.5000E-02  6.5000E-02  6.5000E-02  0.1300      0.1300      0.1300      0.3900      0.3900      0.1300      6.5000E-02
       5.2000E-02  5.2000E-02  2.6000E-02  2.6000E-02  2.6000E-02  2.6000E-02  2.6000E-02  2.6000E-02  5.2000E-02  5.2000E-02
       5.2000E-02  5.2000E-02  0.1300      5.2000E-02  5.2000E-02  5.2000E-02  5.2000E-02  5.2000E-02  5.2000E-02  5.2000E-02
       5.2000E-02  5.2000E-02  5.2000E-02  5.2000E-02  5.2000E-02  5.2000E-02  5.2000E-02  5.2000E-02  6.5000E-02  0.1300    
       6.5000E-02  6.5000E-02  6.5000E-02  6.5000E-02  6.5000E-02  6.5000E-02  6.5000E-02  5.2000E-02  5.2000E-02
  63    0.000       0.000       0.000       0.000       0.000       0.000       0.000       0.000       0.000       0.000    
        0.000       0.000       0.000       0.000       0.000       0.000       0.000       0.000       0.000      2.6000E-02
       2.6000E-02  2.6000E-02  5.2000E-02  5.2000E-02  5.2000E-02  5.2000E-02  5.2000E-02  5.2000E-02  5.2000E-02  5.2000E-02
       5.2000E-02  6.5000E-02  6.5000E-02  0.1300      0.1300      0.1300      0.3900      0.3900      0.1300      6.5000E-02
       6.5000E-02  5.2000E-02  5.2000E-02  2.6000E-02  2.6000E-02  2.6000E-02  2.6000E-02  2.6000E-02  2.6000E-02  2.6000E-02
       5.2000E-02  5.2000E-02  0.1300      0.1300      5.2000E-02  5.2000E-02  5.2000E-02  5.2000E-02  5.2000E-02  5.2000E-02
       5.2000E-02  5.2000E-02  5.2000E-02  5.2000E-02  5.2000E-02  5.2000E-02  5.2000E-02  5.2000E-02  6.5000E-02  6.5000E-02
       6.5000E-02  6.5000E-02  6.5000E-02  6.5000E-02  6.5000E-02  6.5000E-02  6.5000E-02  5.2000E-02  5.2000E-02
  64    0.000       0.000       0.000       0.000       0.000       0.000       0.000       0.000       0.000       0.000    
        0.000       0.000       0.000       0.000       0.000       0.000       0.000       0.000       0.000       0.000    
        0.000       0.000       0.000       0.000      5.2000E-02  5.2000E-02  5.2000E-02  5.2000E-02  5.2000E-02  5.2000E-02
       5.2000E-02  5.2000E-02  6.5000E-02  6.5000E-02  0.1300      0.1300      0.1300      0.3900      0.3900      0.1300    
       5.2000E-02  5.2000E-02  5.2000E-02  2.6000E-02  2.6000E-02  2.6000E-02  2.6000E-02  2.6000E-02  2.6000E-02  2.6000E-02
       5.2000E-02  5.2000E-02  6.5000E-02  0.1300      5.2000E-02  5.2000E-02  5.2000E-02  5.2000E-02  5.2000E-02  5.2000E-02
       5.2000E-02  5.2000E-02  5.2000E-02  5.2000E-02  5.2000E-02  5.2000E-02  5.2000E-02  6.5000E-02  6.5000E-02  6.5000E-02
       6.5000E-02  6.5000E-02  6.5000E-02  6.5000E-02  6.5000E-02  6.5000E-02  5.2000E-02  5.2000E-02  5.2000E-02
  65    0.000       0.000       0.000       0.000       0.000       0.000       0.000       0.000       0.000       0.000    
        0.000       0.000       0.000       0.000       0.000       0.000       0.000       0.000       0.000       0.000    
        0.000       0.000       0.000       0.000       0.000       0.000       0.000       0.000       0.000       0.000    
        0.000       0.000       0.000      6.5000E-02  0.1300      0.1300      0.1300      0.1300      0.1300      0.1300    
       5.2000E-02  5.2000E-02  5.2000E-02  2.6000E-02  2.6000E-02   0.000       0.000       0.000       0.000      2.6000E-02
       2.6000E-02  5.2000E-02  6.5000E-02  6.5000E-02  5.2000E-02  5.2000E-02  5.2000E-02  5.2000E-02  5.2000E-02  5.2000E-02
       5.2000E-02  5.2000E-02  5.2000E-02  5.2000E-02  5.2000E-02  5.2000E-02  5.2000E-02  6.5000E-02  6.5000E-02  6.5000E-02
       6.5000E-02  6.5000E-02  6.5000E-02  6.5000E-02  6.5000E-02  6.5000E-02  6.5000E-02  5.2000E-02  5.2000E-02
  66    0.000       0.000       0.000       0.000       0.000       0.000       0.000       0.000       0.000       0.000    
        0.000       0.000       0.000       0.000       0.000       0.000       0.000       0.000       0.000       0.000    
        0.000       0.000       0.000       0.000       0.000       0.000       0.000       0.000       0.000       0.000    
        0.000       0.000       0.000       0.000       0.000      6.5000E-02  6.5000E-02   0.000       0.000       0.000    
        0.000       0.000       0.000       0.000       0.000       0.000       0.000       0.000       0.000       0.000    
       2.6000E-02  5.2000E-02  6.5000E-02  6.5000E-02  6.5000E-02  5.2000E-02  5.2000E-02  5.2000E-02  5.2000E-02  5.2000E-02
       5.2000E-02  5.2000E-02  5.2000E-02  5.2000E-02  5.2000E-02  5.2000E-02  5.2000E-02  5.2000E-02  6.5000E-02  6.5000E-02
       6.5000E-02  6.5000E-02  6.5000E-02  6.5000E-02  6.5000E-02  6.5000E-02  6.5000E-02  5.2000E-02  5.2000E-02
  67    0.000       0.000       0.000       0.000       0.000       0.000       0.000       0.000       0.000       0.000    
        0.000       0.000       0.000       0.000       0.000       0.000       0.000       0.000       0.000       0.000    
        0.000       0.000       0.000       0.000       0.000       0.000       0.000       0.000       0.000       0.000    
        0.000       0.000       0.000       0.000       0.000       0.000       0.000       0.000       0.000       0.000    
        0.000       0.000       0.000       0.000       0.000       0.000       0.000       0.000       0.000       0.000    
        0.000       0.000      2.6000E-02  6.5000E-02  5.2000E-02  5.2000E-02  5.2000E-02  5.2000E-02  5.2000E-02  2.6000E-02
       2.6000E-02  2.6000E-02  2.6000E-02  2.6000E-02  5.2000E-02  5.2000E-02  5.2000E-02  5.2000E-02  6.5000E-02  6.5000E-02
       6.5000E-02   0.000       0.000       0.000       0.000       0.000       0.000       0.000       0.000    
  68    0.000       0.000       0.000       0.000       0.000       0.000       0.000       0.000       0.000       0.000    
        0.000       0.000       0.000       0.000       0.000       0.000       0.000       0.000       0.000       0.000    
        0.000       0.000       0.000       0.000       0.000       0.000       0.000       0.000       0.000       0.000    
        0.000       0.000       0.000       0.000       0.000       0.000       0.000       0.000       0.000       0.000    
        0.000       0.000       0.000       0.000       0.000       0.000       0.000       0.000       0.000       0.000    
        0.000       0.000       0.000      2.6000E-02  5.2000E-02  5.2000E-02  5.2000E-02  2.6000E-02  2.6000E-02  2.6000E-02
       2.6000E-02  2.6000E-02  2.6000E-02  2.6000E-02  5.2000E-02  5.2000E-02  5.2000E-02  6.5000E-02   0.000       0.000    
        0.000       0.000       0.000       0.000       0.000       0.000       0.000       0.000       0.000    
  69    0.000       0.000       0.000       0.000       0.000       0.000       0.000       0.000       0.000       0.000    
        0.000       0.000       0.000       0.000       0.000       0.000       0.000       0.000       0.000       0.000    
        0.000       0.000       0.000       0.000       0.000       0.000       0.000       0.000       0.000       0.000    
        0.000       0.000       0.000       0.000       0.000       0.000       0.000       0.000       0.000       0.000    
        0.000       0.000       0.000       0.000       0.000       0.000       0.000       0.000       0.000       0.000    
        0.000       0.000       0.000       0.000       0.000       0.000       0.000       0.000       0.000       0.000    
       2.6000E-02  2.6000E-02  2.6000E-02  2.6000E-02  6.5000E-02  6.5000E-02  6.5000E-02   0.000       0.000       0.000    
        0.000       0.000       0.000       0.000       0.000       0.000       0.000       0.000       0.000    
  70    0.000       0.000       0.000       0.000       0.000       0.000       0.000       0.000       0.000       0.000    
        0.000       0.000       0.000       0.000       0.000       0.000       0.000       0.000       0.000       0.000    
        0.000       0.000       0.000       0.000       0.000       0.000       0.000       0.000       0.000       0.000    
        0.000       0.000       0.000       0.000       0.000       0.000       0.000       0.000       0.000       0.000    
        0.000       0.000       0.000       0.000       0.000       0.000       0.000       0.000       0.000       0.000    
        0.000       0.000       0.000       0.000       0.000       0.000       0.000       0.000       0.000       0.000    
        0.000      2.6000E-02  2.6000E-02  2.6000E-02  6.5000E-02  6.5000E-02   0.000       0.000       0.000       0.000    
        0.000       0.000       0.000       0.000       0.000       0.000       0.000       0.000       0.000    
  71    0.000       0.000       0.000       0.000       0.000       0.000       0.000       0.000       0.000       0.000    
        0.000       0.000       0.000       0.000       0.000       0.000       0.000       0.000       0.000       0.000    
        0.000       0.000       0.000       0.000       0.000       0.000       0.000       0.000       0.000       0.000    
        0.000       0.000       0.000       0.000       0.000       0.000       0.000       0.000       0.000       0.000    
        0.000       0.000       0.000       0.000       0.000       0.000       0.000       0.000       0.000       0.000    
        0.000       0.000       0.000       0.000       0.000       0.000       0.000       0.000       0.000       0.000    
        0.000       0.000      2.6000E-02  5.2000E-02   0.000       0.000       0.000       0.000       0.000       0.000    
        0.000       0.000       0.000       0.000       0.000       0.000       0.000       0.000       0.000    



                VERTICAL HYD. COND. FOR LAYER   1
 READING ON UNIT   12 WITH FORMAT: (FREE)              

            1           2           3           4           5           6           7           8           9          10
           11          12          13          14          15          16          17          18          19          20
           21          22          23          24          25          26          27          28          29          30
           31          32          33          34          35          36          37          38          39          40
           41          42          43          44          45          46          47          48          49          50
           51          52          53          54          55          56          57          58          59          60
           61          62          63          64          65          66          67          68          69          70
           71          72          73          74          75          76          77          78          79
 ........................................................................................................................
   1    0.000       0.000       0.000       0.000       0.000       0.000       0.000       0.000       0.000       0.000    
        0.000       0.000       0.000       0.000       0.000       0.000       0.000       0.000       0.000       0.000    
        0.000       0.000       0.000       0.000       0.000       0.000       0.000       0.000       0.000       0.000    
        0.000       0.000       0.000       0.000       0.000       0.000       0.000       0.000       0.000       0.000    
        0.000       0.000       0.000       0.000       0.000       0.000       0.000       0.000       0.000       0.000    
        0.000      2.6000E-02  2.6000E-02   0.000       0.000       0.000       0.000       0.000       0.000       0.000    
        0.000       0.000       0.000       0.000       0.000       0.000       0.000       0.000       0.000       0.000    
        0.000       0.000       0.000       0.000       0.000       0.000       0.000       0.000       0.000    
   2    0.000       0.000       0.000       0.000       0.000       0.000       0.000       0.000       0.000       0.000    
        0.000       0.000       0.000       0.000       0.000       0.000       0.000       0.000       0.000       0.000    
        0.000       0.000       0.000       0.000       0.000       0.000       0.000       0.000       0.000       0.000    
        0.000       0.000       0.000       0.000       0.000       0.000       0.000       0.000       0.000       0.000    
        0.000       0.000       0.000       0.000       0.000       0.000       0.000       0.000       0.000       0.000    
        0.000      2.6000E-02  6.5000E-02  6.5000E-02   0.000       0.000       0.000       0.000       0.000       0.000    
        0.000       0.000       0.000       0.000       0.000       0.000       0.000       0.000       0.000       0.000    
        0.000       0.000       0.000       0.000       0.000       0.000       0.000       0.000       0.000    
   3    0.000       0.000       0.000       0.000       0.000       0.000       0.000       0.000       0.000       0.000    
        0.000       0.000       0.000       0.000       0.000       0.000       0.000       0.000       0.000       0.000    
        0.000       0.000       0.000       0.000       0.000       0.000       0.000       0.000       0.000       0.000    
        0.000       0.000       0.000       0.000       0.000       0.000       0.000       0.000       0.000       0.000    
        0.000       0.000       0.000       0.000       0.000       0.000       0.000       0.000       0.000       0.000    
        0.000      2.6000E-02  6.5000E-02  0.1300       0.000       0.000       0.000       0.000       0.000       0.000    
        0.000       0.000       0.000       0.000       0.000       0.000       0.000       0.000       0.000       0.000    
        0.000       0.000       0.000       0.000       0.000       0.000       0.000       0.000       0.000    
   4    0.000       0.000       0.000       0.000       0.000       0.000       0.000       0.000       0.000       0.000    
        0.000       0.000       0.000       0.000       0.000       0.000       0.000       0.000       0.000       0.000    
        0.000       0.000       0.000       0.000       0.000       0.000       0.000       0.000       0.000       0.000    
        0.000       0.000       0.000       0.000       0.000       0.000       0.000       0.000       0.000       0.000    
        0.000       0.000       0.000       0.000       0.000       0.000       0.000       0.000       0.000       0.000    
        0.000      6.5000E-02  6.5000E-02  0.1300      0.1300       0.000       0.000       0.000       0.000       0.000    
        0.000       0.000       0.000       0.000       0.000       0.000       0.000       0.000       0.000       0.000    
        0.000       0.000       0.000       0.000       0.000       0.000       0.000       0.000       0.000    
   5    0.000       0.000       0.000       0.000       0.000       0.000       0.000       0.000       0.000       0.000    
        0.000       0.000       0.000       0.000       0.000       0.000       0.000       0.000       0.000       0.000    
        0.000       0.000       0.000       0.000       0.000       0.000       0.000       0.000       0.000       0.000    
        0.000       0.000       0.000       0.000       0.000       0.000       0.000       0.000       0.000       0.000    
        0.000       0.000       0.000       0.000       0.000       0.000       0.000       0.000       0.000       0.000    
        0.000      6.5000E-02  6.5000E-02  6.5000E-02  0.1300      6.5000E-02  6.5000E-02   0.000       0.000       0.000    
        0.000       0.000       0.000       0.000       0.000       0.000       0.000       0.000       0.000       0.000    
        0.000       0.000       0.000       0.000       0.000       0.000       0.000       0.000       0.000    
   6    0.000       0.000       0.000       0.000       0.000       0.000       0.000       0.000       0.000       0.000    
        0.000       0.000       0.000       0.000       0.000       0.000       0.000       0.000       0.000       0.000    
        0.000       0.000       0.000       0.000       0.000       0.000       0.000       0.000       0.000       0.000    
        0.000       0.000       0.000       0.000       0.000       0.000       0.000       0.000       0.000       0.000    
        0.000       0.000       0.000       0.000       0.000       0.000       0.000       0.000       0.000       0.000    
        0.000      6.5000E-02  6.5000E-02  6.5000E-02  0.1300      0.1300      6.5000E-02  6.5000E-02  6.5000E-02   0.000    
        0.000       0.000       0.000      6.5000E-02  6.5000E-02   0.000       0.000       0.000       0.000       0.000    
        0.000       0.000       0.000       0.000       0.000       0.000       0.000       0.000       0.000    
   7    0.000       0.000       0.000       0.000       0.000       0.000       0.000       0.000       0.000       0.000    
        0.000       0.000       0.000       0.000       0.000       0.000       0.000       0.000       0.000       0.000    
        0.000       0.000       0.000       0.000       0.000       0.000       0.000       0.000       0.000       0.000    
        0.000       0.000       0.000       0.000       0.000       0.000       0.000       0.000       0.000       0.000    
        0.000       0.000       0.000       0.000       0.000       0.000       0.000       0.000       0.000       0.000    
        0.000      6.5000E-02  6.5000E-02  6.5000E-02  0.1300      0.1300      0.1300      6.5000E-02  6.5000E-02  6.5000E-02
       6.5000E-02  6.5000E-02  6.5000E-02  6.5000E-02  6.5000E-02  6.5000E-02   0.000       0.000       0.000       0.000    
        0.000       0.000       0.000       0.000       0.000       0.000       0.000       0.000       0.000    
   8    0.000       0.000       0.000       0.000       0.000       0.000       0.000       0.000       0.000       0.000    
        0.000       0.000       0.000       0.000       0.000       0.000       0.000       0.000       0.000       0.000    
        0.000       0.000       0.000       0.000       0.000       0.000       0.000       0.000       0.000       0.000    
        0.000       0.000       0.000       0.000       0.000       0.000       0.000       0.000       0.000       0.000    
        0.000       0.000       0.000       0.000       0.000       0.000       0.000       0.000       0.000       0.000    
        0.000      6.5000E-02  6.5000E-02  6.5000E-02  0.1300      0.1300      0.1300      6.5000E-02  6.5000E-02  6.5000E-02
       6.5000E-02  6.5000E-02  6.5000E-02  6.5000E-02  6.5000E-02  6.5000E-02  6.5000E-02  6.5000E-02   0.000       0.000    
        0.000       0.000       0.000       0.000       0.000       0.000       0.000       0.000       0.000    
   9    0.000       0.000       0.000       0.000       0.000       0.000       0.000       0.000       0.000       0.000    
        0.000       0.000       0.000       0.000       0.000       0.000       0.000       0.000       0.000       0.000    
        0.000       0.000       0.000       0.000       0.000       0.000       0.000       0.000       0.000       0.000    
        0.000       0.000       0.000       0.000       0.000       0.000       0.000       0.000       0.000       0.000    
        0.000       0.000       0.000       0.000       0.000       0.000       0.000       0.000       0.000       0.000    
       5.2000E-02  6.5000E-02  6.5000E-02  6.5000E-02  0.1300      0.1300      0.1300      6.5000E-02  6.5000E-02  6.5000E-02
       6.5000E-02  6.5000E-02  6.5000E-02  6.5000E-02  6.5000E-02  6.5000E-02  6.5000E-02  6.5000E-02  6.5000E-02   0.000    
        0.000       0.000       0.000       0.000       0.000       0.000       0.000       0.000       0.000    
  10    0.000       0.000       0.000       0.000       0.000       0.000       0.000       0.000       0.000       0.000    
        0.000       0.000       0.000       0.000       0.000       0.000       0.000       0.000       0.000       0.000    
        0.000       0.000       0.000       0.000       0.000       0.000       0.000       0.000       0.000       0.000    
        0.000       0.000       0.000       0.000       0.000       0.000       0.000       0.000       0.000       0.000    
        0.000       0.000       0.000       0.000       0.000       0.000       0.000       0.000       0.000      6.5000E-02
       6.5000E-02  6.5000E-02  6.5000E-02  6.5000E-02  6.5000E-02  0.1300      0.1300      0.1300      6.5000E-02  6.5000E-02
       6.5000E-02  6.5000E-02  6.5000E-02  6.5000E-02  6.5000E-02  6.5000E-02  6.5000E-02  6.5000E-02  6.5000E-02  6.5000E-02
        0.000       0.000       0.000       0.000       0.000       0.000       0.000       0.000       0.000    
  11    0.000       0.000       0.000       0.000       0.000       0.000       0.000       0.000       0.000       0.000    
        0.000       0.000       0.000       0.000       0.000       0.000       0.000       0.000       0.000       0.000    
        0.000       0.000       0.000       0.000       0.000       0.000       0.000       0.000       0.000       0.000    
        0.000       0.000       0.000       0.000       0.000       0.000       0.000       0.000       0.000       0.000    
        0.000       0.000       0.000       0.000       0.000       0.000       0.000       0.000      6.5000E-02  6.5000E-02
       6.5000E-02  6.5000E-02  6.5000E-02  6.5000E-02  6.5000E-02  0.1300      0.1300      0.1300      6.5000E-02  6.5000E-02
       6.5000E-02  6.5000E-02  6.5000E-02  6.5000E-02  6.5000E-02  6.5000E-02  6.5000E-02  6.5000E-02  6.5000E-02  6.5000E-02
       6.5000E-02   0.000       0.000       0.000       0.000       0.000       0.000       0.000       0.000    
  12    0.000       0.000       0.000       0.000       0.000       0.000       0.000       0.000       0.000       0.000    
        0.000       0.000       0.000       0.000       0.000       0.000       0.000       0.000       0.000       0.000    
        0.000       0.000       0.000       0.000       0.000       0.000       0.000       0.000       0.000       0.000    
        0.000       0.000       0.000       0.000       0.000       0.000       0.000       0.000       0.000       0.000    
        0.000      5.2000E-02  5.2000E-02   0.000       0.000       0.000       0.000      5.2000E-02  6.5000E-02  6.5000E-02
       6.5000E-02  6.5000E-02  6.5000E-02  6.5000E-02  6.5000E-02  0.1300      0.1300      0.1300      6.5000E-02  6.5000E-02
       6.5000E-02  6.5000E-02  6.5000E-02  6.5000E-02  6.5000E-02  6.5000E-02  6.5000E-02  6.5000E-02  6.5000E-02  6.5000E-02
       6.5000E-02   0.000       0.000       0.000       0.000       0.000       0.000       0.000       0.000    
  13    0.000       0.000       0.000       0.000       0.000       0.000       0.000       0.000       0.000       0.000    
        0.000       0.000       0.000       0.000       0.000       0.000       0.000       0.000       0.000       0.000    
        0.000       0.000       0.000       0.000       0.000       0.000       0.000       0.000       0.000       0.000    
        0.000       0.000       0.000       0.000       0.000       0.000       0.000       0.000      5.2000E-02  5.2000E-02
       5.2000E-02  5.2000E-02  5.2000E-02  5.2000E-02  5.2000E-02  5.2000E-02  5.2000E-02  5.2000E-02  6.5000E-02  6.5000E-02
       6.5000E-02  6.5000E-02  6.5000E-02  6.5000E-02  6.5000E-02  0.1300      0.1300      0.1300      6.5000E-02  6.5000E-02
       6.5000E-02  6.5000E-02  6.5000E-02  6.5000E-02  6.5000E-02  6.5000E-02  6.5000E-02  6.5000E-02  6.5000E-02  6.5000E-02
       6.5000E-02  6.5000E-02   0.000       0.000       0.000       0.000       0.000       0.000       0.000    
  14    0.000       0.000       0.000       0.000       0.000       0.000       0.000       0.000       0.000       0.000    
        0.000       0.000       0.000       0.000       0.000       0.000       0.000       0.000       0.000       0.000    
        0.000       0.000       0.000       0.000       0.000       0.000       0.000       0.000       0.000       0.000    
        0.000       0.000       0.000       0.000       0.000       0.000       0.000       0.000      5.2000E-02  5.2000E-02
       5.2000E-02  5.2000E-02  5.2000E-02  5.2000E-02  6.5000E-02  6.5000E-02  6.5000E-02  6.5000E-02  6.5000E-02  6.5000E-02
       6.5000E-02  6.5000E-02  6.5000E-02  6.5000E-02  6.5000E-02  0.1300      0.1300      0.1300      0.1300      0.1300    
       6.5000E-02  6.5000E-02  6.5000E-02  6.5000E-02  6.5000E-02  6.5000E-02  6.5000E-02  0.1300      6.5000E-02  6.5000E-02
       6.5000E-02  6.5000E-02  6.5000E-02   0.000       0.000       0.000       0.000       0.000       0.000    
  15    0.000       0.000       0.000       0.000       0.000       0.000       0.000       0.000       0.000       0.000    
        0.000       0.000       0.000       0.000       0.000       0.000       0.000       0.000       0.000       0.000    
        0.000       0.000       0.000       0.000       0.000       0.000       0.000       0.000       0.000       0.000    
        0.000       0.000       0.000       0.000       0.000       0.000       0.000      5.2000E-02  5.2000E-02  5.2000E-02
       6.5000E-02  6.5000E-02  6.5000E-02  6.5000E-02  6.5000E-02  6.5000E-02  6.5000E-02  6.5000E-02  6.5000E-02  6.5000E-02
       6.5000E-02  6.5000E-02  6.5000E-02  6.5000E-02  6.5000E-02  6.5000E-02  0.1300      0.1300      0.1300      0.1300    
       0.1300      6.5000E-02  6.5000E-02  0.1300      0.1300      0.1300      0.1300      0.1300      0.1300      6.5000E-02
       6.5000E-02  6.5000E-02  3.9000E-02   0.000       0.000       0.000       0.000       0.000       0.000    
  16    0.000       0.000       0.000       0.000       0.000       0.000       0.000       0.000       0.000       0.000    
        0.000       0.000       0.000       0.000       0.000       0.000       0.000       0.000       0.000       0.000    
        0.000       0.000       0.000       0.000       0.000       0.000       0.000       0.000       0.000       0.000    
        0.000       0.000       0.000       0.000       0.000       0.000      5.2000E-02  5.2000E-02  5.2000E-02  5.2000E-02
       5.2000E-02  6.5000E-02  6.5000E-02  6.5000E-02  6.5000E-02  6.5000E-02  6.5000E-02  6.5000E-02  6.5000E-02  6.5000E-02
       6.5000E-02  6.5000E-02  6.5000E-02  6.5000E-02  6.5000E-02  6.5000E-02  0.1300      0.1300      0.1300      0.1300    
       0.1300      0.1300      0.1300      0.1300      0.1300      0.1300      0.1300      0.1300      0.1300      6.5000E-02
       6.5000E-02  6.5000E-02  3.9000E-02  3.9000E-02   0.000       0.000       0.000       0.000       0.000    
  17    0.000       0.000       0.000       0.000       0.000       0.000       0.000       0.000       0.000       0.000    
        0.000       0.000       0.000       0.000       0.000       0.000       0.000       0.000       0.000       0.000    
        0.000       0.000       0.000       0.000       0.000       0.000       0.000       0.000       0.000       0.000    
        0.000       0.000       0.000       0.000       0.000      5.2000E-02  5.2000E-02  5.2000E-02  5.2000E-02  5.2000E-02
       5.2000E-02  6.5000E-02  6.5000E-02  6.5000E-02  6.5000E-02  6.5000E-02  6.5000E-02  6.5000E-02  6.5000E-02  6.5000E-02
       6.5000E-02  6.5000E-02  6.5000E-02  6.5000E-02  6.5000E-02  6.5000E-02  0.1300      0.1300      0.1300      0.1300    
       0.1300      0.1300      0.1300      0.1300      0.1300      0.1300      0.1300      0.1300      0.1300      6.5000E-02
       6.5000E-02  6.5000E-02  3.9000E-02  3.9000E-02   0.000       0.000       0.000       0.000       0.000    
  18    0.000       0.000       0.000       0.000       0.000       0.000       0.000       0.000       0.000       0.000    
        0.000       0.000       0.000       0.000       0.000       0.000       0.000       0.000       0.000       0.000    
        0.000       0.000       0.000       0.000       0.000       0.000       0.000       0.000       0.000       0.000    
        0.000       0.000       0.000       0.000      5.2000E-02  5.2000E-02  5.2000E-02  5.2000E-02  5.2000E-02  5.2000E-02
       5.2000E-02  5.2000E-02  5.2000E-02  6.5000E-02  6.5000E-02  6.5000E-02  6.5000E-02  6.5000E-02  6.5000E-02  6.5000E-02
       6.5000E-02  6.5000E-02  6.5000E-02  6.5000E-02  6.5000E-02  6.5000E-02  0.1300      0.1300      0.1300      0.1300    
       0.1300      0.1300      0.1300      0.1300      0.1300      0.1300      0.1300      0.1300      0.1300      0.1300    
       6.5000E-02  6.5000E-02  6.5000E-02  3.9000E-02   0.000       0.000       0.000       0.000       0.000    
  19    0.000       0.000       0.000       0.000       0.000       0.000       0.000       0.000       0.000       0.000    
        0.000       0.000       0.000       0.000       0.000       0.000       0.000       0.000       0.000       0.000    
        0.000       0.000       0.000       0.000       0.000       0.000       0.000       0.000       0.000       0.000    
        0.000       0.000       0.000      5.2000E-02  5.2000E-02  5.2000E-02  5.2000E-02  5.2000E-02  5.2000E-02  5.2000E-02
       5.2000E-02  5.2000E-02  5.2000E-02  5.2000E-02  6.5000E-02  6.5000E-02  6.5000E-02  6.5000E-02  6.5000E-02  6.5000E-02
       6.5000E-02  6.5000E-02  6.5000E-02  6.5000E-02  6.5000E-02  6.5000E-02  6.5000E-02  0.1300      0.1300      0.1300    
       0.1300      0.1300      0.1300      0.1300      0.1300      0.1300      0.1300      0.1300      0.1300      0.1300    
       6.5000E-02  6.5000E-02  6.5000E-02  3.9000E-02   0.000       0.000       0.000       0.000       0.000    
  20    0.000       0.000       0.000       0.000       0.000       0.000       0.000       0.000       0.000       0.000    
        0.000       0.000       0.000       0.000       0.000       0.000       0.000       0.000       0.000       0.000    
        0.000       0.000       0.000       0.000       0.000       0.000       0.000       0.000       0.000       0.000    
        0.000       0.000       0.000      2.6000E-02  5.2000E-02  5.2000E-02  5.2000E-02  5.2000E-02  5.2000E-02  5.2000E-02
       5.2000E-02  5.2000E-02  5.2000E-02  5.2000E-02  6.5000E-02  6.5000E-02  6.5000E-02  6.5000E-02  6.5000E-02  6.5000E-02
       6.5000E-02  6.5000E-02  6.5000E-02  6.5000E-02  6.5000E-02  6.5000E-02  6.5000E-02  0.1300      0.1300      0.1300    
       0.1300      0.1300      0.1300      0.1300      0.1300      0.1300      0.1300      0.1300      0.1300      0.1300    
       6.5000E-02  6.5000E-02  6.5000E-02  3.9000E-02   0.000       0.000       0.000       0.000       0.000    
  21    0.000       0.000       0.000       0.000       0.000       0.000       0.000       0.000       0.000       0.000    
        0.000       0.000       0.000       0.000       0.000       0.000       0.000       0.000       0.000       0.000    
        0.000       0.000       0.000       0.000       0.000       0.000       0.000       0.000       0.000       0.000    
        0.000       0.000      2.6000E-02  2.6000E-02  5.2000E-02  2.6000E-02  5.2000E-02  5.2000E-02  5.2000E-02  5.2000E-02
       5.2000E-02  5.2000E-02  5.2000E-02  5.2000E-02  5.2000E-02  6.5000E-02  6.5000E-02  6.5000E-02  6.5000E-02  6.5000E-02
       6.5000E-02  6.5000E-02  6.5000E-02  6.5000E-02  6.5000E-02  6.5000E-02  6.5000E-02  6.5000E-02  0.1300      0.1300    
       0.1300      0.1300      0.1300      0.1300      0.1300      0.1300      0.1300      0.1300      0.1300      6.5000E-02
       6.5000E-02  6.5000E-02  6.5000E-02  3.9000E-02  3.9000E-02   0.000       0.000       0.000       0.000    
  22    0.000       0.000       0.000       0.000       0.000       0.000       0.000       0.000       0.000       0.000    
        0.000       0.000       0.000       0.000       0.000       0.000       0.000       0.000       0.000       0.000    
        0.000       0.000       0.000       0.000       0.000       0.000       0.000       0.000       0.000       0.000    
        0.000       0.000      2.6000E-02  2.6000E-02  2.6000E-02  2.6000E-02  5.2000E-02  5.2000E-02  5.2000E-02  5.2000E-02
       5.2000E-02  5.2000E-02  5.2000E-02  5.2000E-02  5.2000E-02  6.5000E-02  6.5000E-02  6.5000E-02  6.5000E-02  6.5000E-02
       6.5000E-02  6.5000E-02  6.5000E-02  6.5000E-02  6.5000E-02  6.5000E-02  6.5000E-02  6.5000E-02  6.5000E-02  6.5000E-02
       6.5000E-02  0.1300      0.1300      0.1300      0.1300      0.1300      0.1300      0.1300      0.1300      6.5000E-02
       6.5000E-02  6.5000E-02  6.5000E-02  6.5000E-02   0.000       0.000       0.000       0.000       0.000    
  23    0.000       0.000       0.000       0.000       0.000       0.000       0.000       0.000       0.000       0.000    
        0.000       0.000       0.000       0.000       0.000       0.000       0.000       0.000       0.000       0.000    
        0.000       0.000       0.000       0.000       0.000       0.000       0.000       0.000       0.000       0.000    
        0.000      2.6000E-02  2.6000E-02  2.6000E-02  2.6000E-02  5.2000E-02  5.2000E-02  5.2000E-02  5.2000E-02  5.2000E-02
       5.2000E-02  5.2000E-02  5.2000E-02  5.2000E-02  5.2000E-02  6.5000E-02  6.5000E-02  0.1300      6.5000E-02  6.5000E-02
       6.5000E-02  6.5000E-02  6.5000E-02  6.5000E-02  6.5000E-02  6.5000E-02  6.5000E-02  6.5000E-02  6.5000E-02  6.5000E-02
       6.5000E-02  6.5000E-02  0.1300      0.1300      0.1300      0.1300      0.1300      0.1300      0.1300      6.5000E-02
       6.5000E-02   0.000       0.000       0.000       0.000       0.000       0.000       0.000       0.000    
  24    0.000       0.000       0.000       0.000       0.000       0.000       0.000       0.000       0.000       0.000    
        0.000       0.000       0.000       0.000       0.000       0.000       0.000       0.000       0.000       0.000    
        0.000       0.000       0.000       0.000       0.000       0.000       0.000       0.000      2.6000E-02  2.6000E-02
       2.6000E-02  2.6000E-02  2.6000E-02  2.6000E-02  2.6000E-02  5.2000E-02  5.2000E-02  5.2000E-02  5.2000E-02  5.2000E-02
       5.2000E-02  5.2000E-02  5.2000E-02  5.2000E-02  5.2000E-02  6.5000E-02  6.5000E-02  0.1300      0.1300      6.5000E-02
       6.5000E-02  6.5000E-02  6.5000E-02  6.5000E-02  6.5000E-02  6.5000E-02  6.5000E-02  6.5000E-02  6.5000E-02  6.5000E-02
       6.5000E-02  6.5000E-02  6.5000E-02  0.1300      0.1300      0.1300      0.1300      0.1300      0.1300      6.5000E-02
       6.5000E-02   0.000       0.000       0.000       0.000       0.000       0.000       0.000       0.000    
  25    0.000       0.000       0.000       0.000       0.000       0.000       0.000       0.000       0.000       0.000    
        0.000       0.000       0.000       0.000       0.000       0.000       0.000       0.000       0.000       0.000    
        0.000       0.000       0.000       0.000       0.000       0.000       0.000      2.6000E-02  2.6000E-02  2.6000E-02
       2.6000E-02  2.6000E-02  2.6000E-02  2.6000E-02  5.2000E-02  5.2000E-02  5.2000E-02  5.2000E-02  5.2000E-02  5.2000E-02
       5.2000E-02  5.2000E-02  5.2000E-02  5.2000E-02  6.5000E-02  6.5000E-02  6.5000E-02  0.1300      0.1300      6.5000E-02
       6.5000E-02  6.5000E-02  6.5000E-02  6.5000E-02  6.5000E-02  6.5000E-02  6.5000E-02  6.5000E-02  6.5000E-02  6.5000E-02
       6.5000E-02  6.5000E-02  6.5000E-02  6.5000E-02  6.5000E-02  0.1300      0.1300      0.1300      0.1300      6.5000E-02
       6.5000E-02   0.000       0.000       0.000       0.000       0.000       0.000       0.000       0.000    
  26    0.000       0.000       0.000       0.000       0.000       0.000       0.000       0.000       0.000       0.000    
        0.000       0.000       0.000       0.000       0.000       0.000       0.000       0.000       0.000       0.000    
        0.000       0.000       0.000       0.000       0.000      2.6000E-02  2.6000E-02  2.6000E-02  2.6000E-02  2.6000E-02
       2.6000E-02  2.6000E-02  2.6000E-02  5.2000E-02  5.2000E-02  5.2000E-02  5.2000E-02  5.2000E-02  5.2000E-02  5.2000E-02
       5.2000E-02  5.2000E-02  6.5000E-02  6.5000E-02  6.5000E-02  6.5000E-02  6.5000E-02  6.5000E-02  0.1300      0.1300    
       0.1300      6.5000E-02  6.5000E-02  6.5000E-02  6.5000E-02  6.5000E-02  6.5000E-02  6.5000E-02  6.5000E-02  6.5000E-02
       6.5000E-02  6.5000E-02  6.5000E-02  6.5000E-02  6.5000E-02  0.1300      0.1300      0.1300      0.1300      6.5000E-02
       6.5000E-02   0.000       0.000       0.000       0.000       0.000       0.000       0.000       0.000    
  27    0.000       0.000       0.000       0.000       0.000       0.000       0.000       0.000       0.000       0.000    
        0.000       0.000       0.000       0.000       0.000       0.000       0.000       0.000       0.000       0.000    
        0.000       0.000       0.000       0.000      2.6000E-02  2.6000E-02  2.6000E-02  2.6000E-02  2.6000E-02  2.6000E-02
       2.6000E-02  2.6000E-02  5.2000E-02  5.2000E-02  5.2000E-02  5.2000E-02  5.2000E-02  5.2000E-02  5.2000E-02  5.2000E-02
       5.2000E-02  6.5000E-02  6.5000E-02  6.5000E-02  6.5000E-02  6.5000E-02  6.5000E-02  6.5000E-02  6.5000E-02  0.1300    
       0.1300      6.5000E-02  6.5000E-02  6.5000E-02  6.5000E-02  6.5000E-02  6.5000E-02  6.5000E-02  6.5000E-02  6.5000E-02
       6.5000E-02  6.5000E-02  6.5000E-02  6.5000E-02  6.5000E-02  0.1300      0.1300      0.1300      0.1300      0.1300    
       6.5000E-02   0.000       0.000       0.000       0.000       0.000       0.000       0.000       0.000    
  28    0.000       0.000       0.000       0.000       0.000       0.000       0.000       0.000       0.000       0.000    
        0.000       0.000       0.000       0.000       0.000       0.000       0.000       0.000       0.000       0.000    
        0.000       0.000       0.000      2.6000E-02  2.6000E-02  2.6000E-02  2.6000E-02  2.6000E-02  2.6000E-02  2.6000E-02
       2.6000E-02  5.2000E-02  5.2000E-02  5.2000E-02  5.2000E-02  5.2000E-02  5.2000E-02  5.2000E-02  6.5000E-02  6.5000E-02
       6.5000E-02  6.5000E-02  6.5000E-02  6.5000E-02  6.5000E-02  6.5000E-02  6.5000E-02  6.5000E-02  6.5000E-02  6.5000E-02
       0.1300      0.1300      6.5000E-02  6.5000E-02  6.5000E-02  6.5000E-02  6.5000E-02  6.5000E-02  6.5000E-02  6.5000E-02
       6.5000E-02  6.5000E-02  6.5000E-02  6.5000E-02  6.5000E-02  6.5000E-02  0.1300      0.1300      0.3900      0.1300    
       6.5000E-02  6.5000E-02   0.000       0.000       0.000       0.000       0.000       0.000       0.000    
  29    0.000       0.000       0.000       0.000       0.000       0.000       0.000       0.000       0.000       0.000    
        0.000       0.000       0.000       0.000       0.000       0.000       0.000       0.000       0.000       0.000    
        0.000      2.6000E-02  2.6000E-02  2.6000E-02  2.6000E-02  2.6000E-02  2.6000E-02  2.6000E-02  2.6000E-02  5.2000E-02
       5.2000E-02  5.2000E-02  5.2000E-02  5.2000E-02  5.2000E-02  5.2000E-02  5.2000E-02  6.5000E-02  6.5000E-02  6.5000E-02
       6.5000E-02  6.5000E-02  6.5000E-02  6.5000E-02  6.5000E-02  6.5000E-02  6.5000E-02  6.5000E-02  6.5000E-02  6.5000E-02
       0.1300      0.1300      6.5000E-02  6.5000E-02  6.5000E-02  6.5000E-02  6.5000E-02  6.5000E-02  6.5000E-02  6.5000E-02
       6.5000E-02  6.5000E-02  6.5000E-02  6.5000E-02  6.5000E-02  6.5000E-02  0.1300      0.1300      0.3900      0.1300    
       6.5000E-02  6.5000E-02   0.000       0.000       0.000       0.000       0.000       0.000       0.000    
  30    0.000       0.000       0.000       0.000       0.000       0.000       0.000       0.000       0.000       0.000    
        0.000       0.000       0.000       0.000       0.000       0.000       0.000       0.000       0.000      2.6000E-02
       2.6000E-02  2.6000E-02  2.6000E-02  2.6000E-02  2.6000E-02  2.6000E-02  2.6000E-02  5.2000E-02  5.2000E-02  5.2000E-02
       5.2000E-02  5.2000E-02  5.2000E-02  5.2000E-02  5.2000E-02  5.2000E-02  5.2000E-02  6.5000E-02  6.5000E-02  6.5000E-02
       6.5000E-02  6.5000E-02  6.5000E-02  6.5000E-02  6.5000E-02  6.5000E-02  6.5000E-02  6.5000E-02  6.5000E-02  6.5000E-02
       0.1300      0.1300      6.5000E-02  6.5000E-02  6.5000E-02  6.5000E-02  6.5000E-02  6.5000E-02  6.5000E-02  6.5000E-02
       6.5000E-02  6.5000E-02  6.5000E-02  6.5000E-02  6.5000E-02  6.5000E-02  0.1300      0.1300      0.3900      0.1300    
       6.5000E-02  6.5000E-02   0.000       0.000       0.000       0.000       0.000       0.000       0.000    
  31    0.000       0.000       0.000       0.000       0.000       0.000       0.000       0.000       0.000       0.000    
        0.000       0.000       0.000       0.000       0.000       0.000       0.000       0.000      2.6000E-02  2.6000E-02
       2.6000E-02  2.6000E-02  2.6000E-02  5.2000E-02  5.2000E-02  5.2000E-02  5.2000E-02  5.2000E-02  5.2000E-02  5.2000E-02
       5.2000E-02  5.2000E-02  5.2000E-02  5.2000E-02  5.2000E-02  5.2000E-02  6.5000E-02  6.5000E-02  6.5000E-02  6.5000E-02
       6.5000E-02  6.5000E-02  6.5000E-02  0.1300      6.5000E-02  6.5000E-02  6.5000E-02  6.5000E-02  6.5000E-02  6.5000E-02
       0.1300      0.1300      6.5000E-02  6.5000E-02  6.5000E-02  6.5000E-02  6.5000E-02  6.5000E-02  6.5000E-02  6.5000E-02
       6.5000E-02  6.5000E-02  6.5000E-02  6.5000E-02  6.5000E-02  6.5000E-02  0.1300      0.1300      0.3900      0.3900    
       6.5000E-02  6.5000E-02   0.000       0.000       0.000       0.000       0.000       0.000       0.000    
  32    0.000       0.000       0.000       0.000       0.000       0.000       0.000       0.000       0.000       0.000    
        0.000       0.000       0.000       0.000       0.000       0.000      2.6000E-02  2.6000E-02  2.6000E-02  2.6000E-02
       2.6000E-02  2.6000E-02  5.2000E-02  5.2000E-02  5.2000E-02  5.2000E-02  5.2000E-02  5.2000E-02  5.2000E-02  5.2000E-02
       5.2000E-02  5.2000E-02  5.2000E-02  5.2000E-02  5.2000E-02  5.2000E-02  6.5000E-02  6.5000E-02  0.3900      0.3900    
       0.3900      0.3900      0.3900      0.3900      6.5000E-02  6.5000E-02  6.5000E-02  6.5000E-02  6.5000E-02  6.5000E-02
       0.1300      0.1300      0.1300      6.5000E-02  6.5000E-02  6.5000E-02  6.5000E-02  6.5000E-02  6.5000E-02  6.5000E-02
       6.5000E-02  6.5000E-02  6.5000E-02  6.5000E-02  6.5000E-02  6.5000E-02  6.5000E-02  0.1300      0.1300      0.3900    
       0.1300      6.5000E-02   0.000       0.000       0.000       0.000       0.000       0.000       0.000    
  33    0.000       0.000       0.000       0.000       0.000       0.000       0.000       0.000       0.000       0.000    
        0.000       0.000       0.000       0.000       0.000      2.6000E-02  2.6000E-02  2.6000E-02  2.6000E-02  2.6000E-02
       2.6000E-02  2.6000E-02  5.2000E-02  5.2000E-02  5.2000E-02  5.2000E-02  5.2000E-02  5.2000E-02  5.2000E-02  5.2000E-02
       5.2000E-02  5.2000E-02  5.2000E-02  5.2000E-02  6.5000E-02  6.5000E-02  6.5000E-02  0.3900      0.3900      0.3900    
       0.3900      0.3900      0.3900      0.3900      0.3900      6.5000E-02  6.5000E-02  6.5000E-02  6.5000E-02  6.5000E-02
       0.1300      0.1300      0.1300      0.1300      0.1300      0.1300      6.5000E-02  6.5000E-02  6.5000E-02  6.5000E-02
       6.5000E-02  6.5000E-02  6.5000E-02  6.5000E-02  6.5000E-02  6.5000E-02  6.5000E-02  0.1300      0.1300      0.3900    
       0.1300      6.5000E-02  6.5000E-02   0.000       0.000       0.000       0.000       0.000       0.000    
  34    0.000       0.000       0.000       0.000       0.000       0.000       0.000       0.000       0.000       0.000    
        0.000       0.000       0.000       0.000      2.6000E-02  2.6000E-02  2.6000E-02  2.6000E-02  2.6000E-02  2.6000E-02
       2.6000E-02  2.6000E-02  5.2000E-02  5.2000E-02  5.2000E-02  5.2000E-02  5.2000E-02  0.1300      5.2000E-02  5.2000E-02
       5.2000E-02  5.2000E-02  5.2000E-02  5.2000E-02  6.5000E-02  6.5000E-02  0.3900      0.3900      0.3900      0.3900    
       0.3900      0.1300      0.1300      0.3900      0.3900      0.3900      0.3900      0.3900      0.3900      0.1300    
       0.1300      0.1300      0.3900      0.3900      0.3900      0.1300      6.5000E-02  6.5000E-02  6.5000E-02  6.5000E-02
       6.5000E-02  6.5000E-02  6.5000E-02  6.5000E-02  6.5000E-02  6.5000E-02  6.5000E-02  0.1300      0.1300      0.1300    
       6.5000E-02  5.2000E-02  5.2000E-02   0.000       0.000       0.000       0.000       0.000       0.000    
  35    0.000       0.000       0.000       0.000       0.000       0.000       0.000       0.000       0.000       0.000    
        0.000       0.000       0.000      2.6000E-02  2.6000E-02  2.6000E-02  2.6000E-02  2.6000E-02  5.2000E-02  5.2000E-02
       5.2000E-02  5.2000E-02  5.2000E-02  5.2000E-02  0.1300      0.1300      0.1300      0.1300      0.1300      0.1300    
       5.2000E-02  5.2000E-02  0.1300      0.1300      0.3900      0.3900      0.3900      0.3900      0.1300      0.1300    
       0.1300      0.1300      0.1300      0.1300      0.3900      0.3900      0.3900      0.3900      0.3900      0.3900    
       0.3900      0.3900      0.3900      0.3900      0.3900      0.3900      6.5000E-02  6.5000E-02  6.5000E-02  6.5000E-02
       6.5000E-02  6.5000E-02  6.5000E-02  6.5000E-02  6.5000E-02  6.5000E-02  6.5000E-02  0.1300      0.1300      6.5000E-02
       6.5000E-02  5.2000E-02  2.6000E-02  2.6000E-02   0.000       0.000       0.000       0.000       0.000    
  36    0.000       0.000       0.000       0.000       0.000       0.000       0.000       0.000       0.000       0.000    
        0.000       0.000       0.000      2.6000E-02  2.6000E-02  2.6000E-02  2.6000E-02  5.2000E-02  5.2000E-02  5.2000E-02
       5.2000E-02  5.2000E-02  5.2000E-02  5.2000E-02  0.1300      0.1300      0.1300      0.1300      0.3900      0.3900    
       0.3900      0.3900      0.3900      0.3900      0.3900      0.3900      0.3900      0.3900      0.1300      0.1300    
       0.1300      0.1300      0.1300      0.1300      0.3900      0.3900      0.3900      0.3900      0.3900      0.3900    
       0.3900      0.3900      0.3900      0.3900      0.3900      0.3900      0.3900      0.1300      0.1300      6.5000E-02
       6.5000E-02  6.5000E-02  0.1300      0.1300      6.5000E-02  6.5000E-02  6.5000E-02  0.1300      0.1300      6.5000E-02
       6.5000E-02  6.5000E-02  2.6000E-02  2.6000E-02  2.6000E-02   0.000       0.000       0.000       0.000    
  37    0.000       0.000       0.000       0.000       0.000       0.000       0.000       0.000       0.000       0.000    
        0.000       0.000      2.6000E-02  2.6000E-02  2.6000E-02  2.6000E-02  5.2000E-02  5.2000E-02  5.2000E-02  5.2000E-02
       5.2000E-02  5.2000E-02  5.2000E-02  0.1300      0.3900      0.3900      0.3900      0.3900      0.3900      0.3900    
       0.3900      0.3900      0.3900      0.3900      0.3900      0.3900      0.3900      0.3900      6.5000E-02  6.5000E-02
       6.5000E-02  6.5000E-02  0.1300      0.3900      0.3900      0.3900      0.3900      0.3900      0.3900      0.3900    
       0.3900      0.3900      0.3900      0.3900      0.3900      0.3900      0.3900      0.3900      0.3900      0.3900    
       0.3900      0.3900      0.1300      0.1300      0.1300      0.1300      0.1300      0.1300      0.1300      0.1300    
       6.5000E-02  6.5000E-02  5.2000E-02  2.6000E-02  2.6000E-02   0.000       0.000       0.000       0.000    
  38    0.000       0.000       0.000       0.000       0.000       0.000       0.000       0.000       0.000       0.000    
       5.2000E-02  5.2000E-02  2.6000E-02  5.2000E-02  5.2000E-02  5.2000E-02  5.2000E-02  5.2000E-02  0.1300      0.1300    
       0.1300      0.1300      0.1300      0.1300      0.1300      0.3900      0.3900      0.3900      0.1300      0.1300    
       0.3900      0.3900      0.3900      0.3900      0.3900      0.3900      0.3900      0.3900      6.5000E-02  6.5000E-02
       6.5000E-02  6.5000E-02  0.1300      0.3900      0.3900      0.3900      6.5000E-02  0.1300      0.1300      0.1300    
       0.1300      0.1300      0.3900      0.3900      0.3900      0.3900      0.3900      0.3900      0.3900      0.3900    
       0.3900      0.3900      0.3900      0.3900      0.3900      0.3900      0.3900      0.3900      0.3900      0.1300    
       0.1300      6.5000E-02  5.2000E-02  2.6000E-02  2.6000E-02  5.2000E-02   0.000       0.000       0.000    
  39    0.000       0.000       0.000       0.000       0.000       0.000       0.000      2.6000E-02  2.6000E-02  5.2000E-02
       5.2000E-02  5.2000E-02  5.2000E-02  5.2000E-02  0.1300      0.1300      0.1300      0.1300      0.1300      0.1300    
       0.1300      0.1300      0.1300      6.5000E-02  6.5000E-02  6.5000E-02  6.5000E-02  6.5000E-02  0.1300      0.3900    
       0.3900      0.3900      0.3900      0.3900      0.3900      0.3900      0.3900      0.3900      6.5000E-02  6.5000E-02
       6.5000E-02  6.5000E-02  6.5000E-02  0.3900      0.3900      6.5000E-02  6.5000E-02  6.5000E-02  0.1300      0.1300    
       0.1300      0.1300      0.1300      0.1300      0.1300      0.1300      0.1300      0.1300      0.1300      0.3900    
       0.3900      0.3900      0.3900      0.3900      0.3900      0.3900      0.3900      0.3900      0.3900      0.3900    
       0.3900      0.3900      0.1300      5.2000E-02  5.2000E-02   1.170       0.000       0.000       0.000    
  40    0.000       0.000       0.000       0.000       0.000       0.000      2.6000E-02  2.6000E-02  2.6000E-02  5.2000E-02
       5.2000E-02  5.2000E-02  0.1300      0.1300      0.1300      0.1300      0.1300      0.1300      5.2000E-02  5.2000E-02
       5.2000E-02  5.2000E-02  6.5000E-02  6.5000E-02  6.5000E-02  6.5000E-02  6.5000E-02  6.5000E-02  0.3900      0.3900    
       0.3900      0.3900      0.3900      0.3900      0.3900      0.3900      0.3900      0.3900      6.5000E-02  6.5000E-02
       6.5000E-02  6.5000E-02  6.5000E-02  0.3900      0.3900      6.5000E-02  6.5000E-02  6.5000E-02  6.5000E-02  0.1300    
       0.1300      0.1300      0.1300      0.1300      0.1300      0.1300      6.5000E-02  6.5000E-02  0.1300      0.3900    
       0.3900      0.1300      0.1300      0.1300      0.1300      0.3900      0.3900      0.3900      0.3900      0.3900    
       0.3900      0.3900      0.3900      0.3900      0.3900       1.170       0.000       0.000       0.000    
  41    0.000       0.000       0.000       0.000       0.000      2.6000E-02  2.6000E-02  2.6000E-02  5.2000E-02  5.2000E-02
       5.2000E-02  5.2000E-02  0.1300      0.1300      5.2000E-02  5.2000E-02  5.2000E-02  5.2000E-02  5.2000E-02  5.2000E-02
       5.2000E-02  6.5000E-02  6.5000E-02  6.5000E-02  6.5000E-02  6.5000E-02  6.5000E-02  6.5000E-02  0.3900      0.3900    
       0.1300      0.1300      0.1300      0.3900      0.3900      0.3900      0.3900      0.3900      6.5000E-02  6.5000E-02
       6.5000E-02  6.5000E-02  6.5000E-02  0.3900      0.3900      0.3900      6.5000E-02  6.5000E-02  6.5000E-02  0.1300    
       0.1300      0.1300      5.2000E-02  5.2000E-02  5.2000E-02  5.2000E-02  6.5000E-02  6.5000E-02  6.5000E-02  0.3900    
       0.3900      0.1300      6.5000E-02  0.1300      0.1300      0.1300      6.5000E-02  6.5000E-02  0.3900      0.3900    
       0.3900      0.3900      0.3900      0.3900      0.3900       0.000       0.000       0.000       0.000    
  42    0.000       0.000       0.000       0.000       0.000      2.6000E-02  2.6000E-02  2.6000E-02  5.2000E-02  5.2000E-02
       5.2000E-02  5.2000E-02  5.2000E-02  5.2000E-02  5.2000E-02  5.2000E-02  5.2000E-02  5.2000E-02  5.2000E-02  6.5000E-02
       6.5000E-02  6.5000E-02  6.5000E-02  0.3900      0.3900      0.3900      0.3900      0.3900      0.3900      0.1300    
       0.1300      0.1300      0.1300      0.1300      0.3900      0.3900      0.3900      0.3900      6.5000E-02  6.5000E-02
       6.5000E-02  6.5000E-02  6.5000E-02  0.1300      0.3900      0.3900      6.5000E-02  6.5000E-02  6.5000E-02  6.5000E-02
       5.2000E-02  5.2000E-02  5.2000E-02  5.2000E-02  5.2000E-02  5.2000E-02  5.2000E-02  6.5000E-02  6.5000E-02  0.3900    
       0.3900      0.1300      6.5000E-02  6.5000E-02  6.5000E-02  6.5000E-02  6.5000E-02  6.5000E-02  6.5000E-02  0.1300    
       0.3900      0.3900      0.3900      0.3900      0.3900       0.000       0.000       0.000       0.000    
  43    0.000       0.000       0.000       0.000       0.000      2.6000E-02  2.6000E-02  2.6000E-02  5.2000E-02  5.2000E-02
       5.2000E-02  5.2000E-02  5.2000E-02  5.2000E-02  5.2000E-02  5.2000E-02  5.2000E-02  5.2000E-02  5.2000E-02  6.5000E-02
       6.5000E-02  6.5000E-02  0.3900      0.3900      0.3900      0.1300      0.1300      0.1300      0.1300      0.1300    
       0.1300      0.1300      0.1300      0.1300      0.3900      0.3900      0.3900      6.5000E-02  6.5000E-02  6.5000E-02
       6.5000E-02  6.5000E-02  6.5000E-02  0.1300      0.3900      0.3900      6.5000E-02  6.5000E-02  6.5000E-02  6.5000E-02
       5.2000E-02  5.2000E-02  5.2000E-02  5.2000E-02  5.2000E-02  5.2000E-02  5.2000E-02  6.5000E-02  6.5000E-02  0.3900    
       0.3900      6.5000E-02  6.5000E-02  6.5000E-02  6.5000E-02  6.5000E-02  6.5000E-02  6.5000E-02  6.5000E-02  0.1300    
       0.3900      0.3900      0.3900      0.3900      0.1300       0.000       0.000       0.000       0.000    
  44    0.000       0.000       0.000       0.000       0.000      2.6000E-02  2.6000E-02  2.6000E-02  2.6000E-02  5.2000E-02
       5.2000E-02  5.2000E-02  5.2000E-02  5.2000E-02  5.2000E-02  6.5000E-02  6.5000E-02  6.5000E-02  6.5000E-02  0.1300    
       0.1300      0.3900      0.3900      0.1300      0.1300      0.1300      0.1300      0.1300      0.1300      0.1300    
       0.1300      0.1300      0.1300      0.1300      0.3900      0.3900      0.3900      6.5000E-02  6.5000E-02  6.5000E-02
       6.5000E-02  6.5000E-02  5.2000E-02  5.2000E-02  0.3900      0.3900      6.5000E-02  6.5000E-02  6.5000E-02  6.5000E-02
       6.5000E-02  5.2000E-02  2.6000E-02  2.6000E-02  2.6000E-02  5.2000E-02  5.2000E-02  6.5000E-02  6.5000E-02  0.1300    
       0.3900      6.5000E-02  6.5000E-02  6.5000E-02  6.5000E-02  6.5000E-02  6.5000E-02  6.5000E-02  6.5000E-02  0.1300    
       0.1300      0.3900      0.3900      0.1300      0.1300       0.000       0.000       0.000       0.000    
  45    0.000       0.000       0.000      2.6000E-02  2.6000E-02  2.6000E-02  2.6000E-02  2.6000E-02  5.2000E-02  5.2000E-02
       5.2000E-02  5.2000E-02  5.2000E-02  5.2000E-02  0.1300      0.1300      0.1300      0.1300      0.1300      0.3900    
       0.3900      0.3900      0.1300      0.1300      0.1300      0.1300      0.1300      0.1300      0.1300      0.1300    
       0.1300      0.1300      0.1300      0.1300      0.3900      0.3900      0.3900      0.1300      5.2000E-02  5.2000E-02
       5.2000E-02  5.2000E-02  5.2000E-02  5.2000E-02  0.3900      0.3900      6.5000E-02  6.5000E-02  2.6000E-02  2.6000E-02
       2.6000E-02  2.6000E-02  2.6000E-02  2.6000E-02  2.6000E-02  5.2000E-02  5.2000E-02  6.5000E-02  6.5000E-02  0.1300    
       0.3900      6.5000E-02  6.5000E-02  6.5000E-02  6.5000E-02  6.5000E-02  6.5000E-02  6.5000E-02  6.5000E-02  0.1300    
       0.1300      0.3900      0.3900      6.5000E-02  5.2000E-02   0.000       0.000       0.000       0.000    
  46    0.000       0.000       0.000      2.6000E-02  2.6000E-02  2.6000E-02  2.6000E-02  2.6000E-02  5.2000E-02  5.2000E-02
       5.2000E-02  0.1300      0.1300      0.1300      0.1300      0.1300      0.3900      0.3900      0.3900      0.3900    
       0.3900      0.1300      0.1300      0.1300      0.1300      0.1300      0.1300      0.1300      0.1300      0.1300    
       0.1300      0.1300      0.1300      0.1300      0.3900      0.3900      0.3900      6.5000E-02  5.2000E-02  5.2000E-02
       5.2000E-02  5.2000E-02  5.2000E-02  5.2000E-02  0.3900      0.3900      6.5000E-02  6.5000E-02  2.6000E-02  2.6000E-02
       2.6000E-02  2.6000E-02  2.6000E-02  2.6000E-02  2.6000E-02  5.2000E-02  5.2000E-02  6.5000E-02  6.5000E-02  0.1300    
       0.1300      6.5000E-02  6.5000E-02  6.5000E-02  6.5000E-02  6.5000E-02  6.5000E-02  6.5000E-02  6.5000E-02  0.1300    
       0.1300      0.3900      0.1300      6.5000E-02  6.5000E-02   0.000       0.000       0.000       0.000    
  47    0.000       0.000       0.000      2.6000E-02  2.6000E-02  2.6000E-02  2.6000E-02  5.2000E-02  5.2000E-02  5.2000E-02
       5.2000E-02  0.1300      0.1300      0.1300      0.3900      0.3900      0.3900      0.1300      0.1300      0.1300    
       0.1300      0.1300      0.1300      0.1300      0.1300      0.1300      0.1300      0.1300      0.1300      6.5000E-02
       0.1300      0.1300      0.1300      0.1300      0.3900      0.3900      0.3900      6.5000E-02  5.2000E-02  5.2000E-02
       5.2000E-02  5.2000E-02  5.2000E-02  5.2000E-02  0.3900      0.3900      6.5000E-02  6.5000E-02  2.6000E-02  2.6000E-02
       2.6000E-02  2.6000E-02  2.6000E-02  2.6000E-02  2.6000E-02  5.2000E-02  5.2000E-02  5.2000E-02  6.5000E-02  6.5000E-02
       0.1300      6.5000E-02  6.5000E-02  6.5000E-02  6.5000E-02  6.5000E-02  6.5000E-02  6.5000E-02  6.5000E-02  0.1300    
       0.1300      0.3900      0.1300      6.5000E-02  6.5000E-02   0.000       0.000       0.000       0.000    
  48    0.000       0.000       0.000      2.6000E-02  2.6000E-02  2.6000E-02  2.6000E-02  5.2000E-02  5.2000E-02  5.2000E-02
       5.2000E-02  0.1300      0.3900      0.3900      0.3900      0.1300      0.1300      0.1300      0.1300      0.1300    
       0.1300      0.1300      0.1300      0.1300      6.5000E-02  6.5000E-02  6.5000E-02  6.5000E-02  6.5000E-02  6.5000E-02
       0.1300      0.1300      0.1300      0.1300      0.3900      0.3900      0.3900      0.3900      5.2000E-02  5.2000E-02
       5.2000E-02  5.2000E-02  5.2000E-02  5.2000E-02  0.3900      0.3900      6.5000E-02  6.5000E-02  6.5000E-02  2.6000E-02
       2.6000E-02  2.6000E-02  2.6000E-02  2.6000E-02  2.6000E-02  2.6000E-02  5.2000E-02  5.2000E-02  6.5000E-02  6.5000E-02
       0.1300      0.1300      6.5000E-02  6.5000E-02  6.5000E-02  6.5000E-02  6.5000E-02  6.5000E-02  6.5000E-02  0.1300    
       0.3900      0.3900      0.1300      6.5000E-02  6.5000E-02  6.5000E-02   0.000       0.000       0.000    
  49    0.000       0.000       0.000      2.6000E-02  2.6000E-02  2.6000E-02  2.6000E-02  5.2000E-02  5.2000E-02  5.2000E-02
       0.1300      0.3900      0.3900      0.1300      0.1300      0.1300      0.1300      0.1300      0.1300      6.5000E-02
       6.5000E-02  6.5000E-02  6.5000E-02  6.5000E-02  6.5000E-02  6.5000E-02  6.5000E-02  6.5000E-02  6.5000E-02  6.5000E-02
       0.1300      0.1300      0.1300      0.1300      0.3900      0.3900      0.3900      0.3900      0.3900      5.2000E-02
       5.2000E-02  5.2000E-02  5.2000E-02  5.2000E-02  5.2000E-02  0.3900      0.3900      0.1300      6.5000E-02  2.6000E-02
       2.6000E-02  2.6000E-02  2.6000E-02  2.6000E-02  2.6000E-02  2.6000E-02  5.2000E-02  5.2000E-02  6.5000E-02  6.5000E-02
       0.1300      0.1300      6.5000E-02  6.5000E-02  6.5000E-02  6.5000E-02  6.5000E-02  6.5000E-02  6.5000E-02  0.1300    
       0.3900      0.3900      0.1300      6.5000E-02  6.5000E-02  6.5000E-02   0.000       0.000       0.000    
  50    0.000       0.000       0.000      2.6000E-02  2.6000E-02  2.6000E-02  5.2000E-02  5.2000E-02  5.2000E-02  5.2000E-02
       0.3900      0.3900      0.3900      0.3900      0.1300      6.5000E-02  6.5000E-02  6.5000E-02  6.5000E-02  6.5000E-02
       6.5000E-02  6.5000E-02  6.5000E-02  6.5000E-02  6.5000E-02  6.5000E-02  6.5000E-02  6.5000E-02  6.5000E-02  6.5000E-02
       6.5000E-02  0.1300      0.1300      0.1300      0.1300      0.3900      0.3900      0.3900      0.3900      0.3900    
       5.2000E-02  5.2000E-02  5.2000E-02  5.2000E-02  5.2000E-02  5.2000E-02  0.3900      0.3900      0.1300      2.6000E-02
       2.6000E-02  2.6000E-02  2.6000E-02  2.6000E-02  2.6000E-02  2.6000E-02  5.2000E-02  5.2000E-02  6.5000E-02  6.5000E-02
       0.1300      0.1300      6.5000E-02  6.5000E-02  6.5000E-02  6.5000E-02  6.5000E-02  6.5000E-02  6.5000E-02  0.1300    
       0.3900      0.3900      0.1300      0.1300      6.5000E-02  6.5000E-02   0.000       0.000       0.000    
  51    0.000       0.000       0.000      2.6000E-02  2.6000E-02  5.2000E-02  5.2000E-02  5.2000E-02  5.2000E-02  0.3900    
       0.3900      0.3900      0.3900      0.1300      0.1300      5.2000E-02  5.2000E-02  6.5000E-02  6.5000E-02  6.5000E-02
       6.5000E-02  6.5000E-02  6.5000E-02  6.5000E-02  6.5000E-02  6.5000E-02  6.5000E-02  6.5000E-02  6.5000E-02  6.5000E-02
       6.5000E-02  0.1300      0.1300      0.1300      0.1300      0.3900      0.3900      0.3900      0.3900      0.3900    
       5.2000E-02  5.2000E-02  5.2000E-02  5.2000E-02  5.2000E-02  5.2000E-02  0.3900      0.3900      0.3900      2.6000E-02
       2.6000E-02  2.6000E-02  2.6000E-02  2.6000E-02  2.6000E-02  2.6000E-02  5.2000E-02  5.2000E-02  6.5000E-02  6.5000E-02
       0.1300      0.1300      0.1300      6.5000E-02  6.5000E-02  6.5000E-02  6.5000E-02  6.5000E-02  6.5000E-02  0.1300    
       0.3900      0.3900      0.1300      0.1300      6.5000E-02  6.5000E-02   0.000       0.000       0.000    
  52    0.000       0.000      2.6000E-02  2.6000E-02  2.6000E-02  5.2000E-02  5.2000E-02  5.2000E-02  5.2000E-02  0.3900    
       0.3900      0.3900      0.1300      5.2000E-02  5.2000E-02  5.2000E-02  5.2000E-02  5.2000E-02  5.2000E-02  6.5000E-02
       6.5000E-02  6.5000E-02  6.5000E-02  6.5000E-02  6.5000E-02  6.5000E-02  6.5000E-02  6.5000E-02  6.5000E-02  6.5000E-02
       6.5000E-02  0.1300      0.1300      0.1300      0.1300      0.3900      0.3900      0.3900      0.3900      0.3900    
       5.2000E-02  5.2000E-02  5.2000E-02  5.2000E-02  5.2000E-02  5.2000E-02  5.2000E-02  0.3900      0.3900      2.6000E-02
       2.6000E-02  2.6000E-02  2.6000E-02  2.6000E-02  2.6000E-02  2.6000E-02  5.2000E-02  5.2000E-02  5.2000E-02  6.5000E-02
       0.1300      0.1300      0.1300      6.5000E-02  6.5000E-02  6.5000E-02  6.5000E-02  6.5000E-02  6.5000E-02  0.1300    
       0.3900      0.3900      0.3900      0.1300      6.5000E-02  6.5000E-02   0.000       0.000       0.000    
  53    0.000       0.000      2.6000E-02  2.6000E-02  2.6000E-02  5.2000E-02  5.2000E-02  5.2000E-02  0.3900      0.3900    
       0.3900      0.1300      5.2000E-02  5.2000E-02  5.2000E-02  5.2000E-02  5.2000E-02  5.2000E-02  5.2000E-02  5.2000E-02
       5.2000E-02  6.5000E-02  6.5000E-02  6.5000E-02  6.5000E-02  6.5000E-02  6.5000E-02  6.5000E-02  6.5000E-02  6.5000E-02
       6.5000E-02  0.1300      0.1300      0.1300      0.1300      0.3900      0.3900      0.3900      0.3900      5.2000E-02
       5.2000E-02  5.2000E-02  5.2000E-02  5.2000E-02  5.2000E-02  5.2000E-02  5.2000E-02  0.3900      0.1300      0.3900    
       2.6000E-02  2.6000E-02  2.6000E-02  2.6000E-02  2.6000E-02  2.6000E-02  2.6000E-02  5.2000E-02  5.2000E-02  6.5000E-02
       0.1300      0.1300      0.1300      6.5000E-02  6.5000E-02  6.5000E-02  6.5000E-02  6.5000E-02  6.5000E-02  0.1300    
       0.1300      0.3900      0.3900      0.1300      6.5000E-02  6.5000E-02  6.5000E-02   0.000       0.000    
  54    0.000       0.000      2.6000E-02  2.6000E-02  2.6000E-02  5.2000E-02  5.2000E-02  5.2000E-02  0.3900      0.3900    
       0.3900      5.2000E-02  5.2000E-02  5.2000E-02  5.2000E-02  5.2000E-02  5.2000E-02  5.2000E-02  5.2000E-02  5.2000E-02
       5.2000E-02  6.5000E-02  6.5000E-02  6.5000E-02  6.5000E-02  6.5000E-02  6.5000E-02  6.5000E-02  6.5000E-02  6.5000E-02
       6.5000E-02  0.1300      0.1300      0.1300      0.1300      0.3900      0.3900      0.3900      0.3900      6.5000E-02
       5.2000E-02  5.2000E-02  5.2000E-02  2.6000E-02  2.6000E-02  2.6000E-02  5.2000E-02  0.1300      0.1300      0.1300    
       2.6000E-02  2.6000E-02  2.6000E-02  2.6000E-02  2.6000E-02  2.6000E-02  2.6000E-02  5.2000E-02  5.2000E-02  6.5000E-02
       0.1300      0.1300      0.1300      6.5000E-02  6.5000E-02  6.5000E-02  6.5000E-02  6.5000E-02  6.5000E-02  0.1300    
       0.1300      0.1300      0.1300      0.1300      6.5000E-02  6.5000E-02  6.5000E-02   0.000       0.000    
  55    0.000      2.6000E-02  2.6000E-02  2.6000E-02  5.2000E-02  5.2000E-02  5.2000E-02  0.1300      0.1300      0.1300    
       0.1300      5.2000E-02  5.2000E-02  5.2000E-02  5.2000E-02  5.2000E-02  5.2000E-02  5.2000E-02  5.2000E-02  5.2000E-02
       5.2000E-02  5.2000E-02  6.5000E-02  6.5000E-02  6.5000E-02  6.5000E-02  6.5000E-02  6.5000E-02  6.5000E-02  6.5000E-02
       6.5000E-02  6.5000E-02  0.1300      0.1300      0.1300      0.3900      0.3900      0.3900      0.3900      6.5000E-02
       5.2000E-02  2.6000E-02  2.6000E-02  2.6000E-02  2.6000E-02  2.6000E-02  5.2000E-02  0.1300      0.1300      0.1300    
       2.6000E-02  2.6000E-02  2.6000E-02  2.6000E-02  2.6000E-02  2.6000E-02  2.6000E-02  5.2000E-02  5.2000E-02  6.5000E-02
       0.1300      0.1300      0.1300      6.5000E-02  6.5000E-02  6.5000E-02  6.5000E-02  6.5000E-02  6.5000E-02  0.1300    
       0.1300      0.1300      0.1300      0.1300      0.1300      6.5000E-02  6.5000E-02   0.000       0.000    
  56    0.000      2.6000E-02  2.6000E-02  5.2000E-02  5.2000E-02  5.2000E-02  0.1300      0.1300      0.1300      0.1300    
       0.1300      5.2000E-02  5.2000E-02  5.2000E-02  5.2000E-02  5.2000E-02  5.2000E-02  5.2000E-02  5.2000E-02  5.2000E-02
       5.2000E-02  5.2000E-02  5.2000E-02  6.5000E-02  6.5000E-02  6.5000E-02  6.5000E-02  6.5000E-02  6.5000E-02  6.5000E-02
       6.5000E-02  6.5000E-02  0.1300      0.1300      0.1300      0.3900      0.3900      0.3900      0.3900      6.5000E-02
       5.2000E-02  2.6000E-02  2.6000E-02  2.6000E-02  2.6000E-02  2.6000E-02  5.2000E-02  0.1300      0.1300      0.1300    
       2.6000E-02  2.6000E-02  2.6000E-02  2.6000E-02  2.6000E-02  2.6000E-02  2.6000E-02  5.2000E-02  5.2000E-02  6.5000E-02
       0.1300      0.1300      0.1300      6.5000E-02  6.5000E-02  5.2000E-02  5.2000E-02  5.2000E-02  6.5000E-02  6.5000E-02
       0.1300      0.1300      0.1300      0.1300      0.1300      6.5000E-02  6.5000E-02   0.000       0.000    
  57   2.6000E-02  2.6000E-02  5.2000E-02  5.2000E-02  5.2000E-02  0.1300      0.1300      0.1300      0.1300      5.2000E-02
       5.2000E-02  5.2000E-02  5.2000E-02  5.2000E-02  5.2000E-02  5.2000E-02  5.2000E-02  5.2000E-02  5.2000E-02  5.2000E-02
       5.2000E-02  5.2000E-02  5.2000E-02  5.2000E-02  5.2000E-02  5.2000E-02  6.5000E-02  6.5000E-02  6.5000E-02  6.5000E-02
       6.5000E-02  6.5000E-02  0.1300      0.1300      0.1300      0.3900      0.3900      0.3900      6.5000E-02  6.5000E-02
       5.2000E-02  2.6000E-02  2.6000E-02  2.6000E-02  2.6000E-02  2.6000E-02  5.2000E-02  0.1300      0.1300      0.1300    
       2.6000E-02  2.6000E-02  2.6000E-02  2.6000E-02  2.6000E-02  2.6000E-02  2.6000E-02  5.2000E-02  5.2000E-02  5.2000E-02
       6.5000E-02  0.1300      0.1300      6.5000E-02  6.5000E-02  5.2000E-02  5.2000E-02  5.2000E-02  6.5000E-02  6.5000E-02
       0.1300      0.1300      6.5000E-02  6.5000E-02  6.5000E-02  6.5000E-02  6.5000E-02   0.000       0.000    
  58   2.6000E-02  2.6000E-02  5.2000E-02  5.2000E-02  5.2000E-02  0.1300      5.2000E-02  5.2000E-02  5.2000E-02  5.2000E-02
       5.2000E-02  5.2000E-02  5.2000E-02  5.2000E-02  5.2000E-02  5.2000E-02  2.6000E-02  5.2000E-02  5.2000E-02  5.2000E-02
       5.2000E-02  5.2000E-02  5.2000E-02  5.2000E-02  5.2000E-02  5.2000E-02  5.2000E-02  6.5000E-02  6.5000E-02  6.5000E-02
       6.5000E-02  6.5000E-02  0.1300      0.1300      0.1300      0.3900      0.3900      0.3900      6.5000E-02  6.5000E-02
       5.2000E-02  2.6000E-02  2.6000E-02  2.6000E-02  2.6000E-02  2.6000E-02  2.6000E-02  5.2000E-02  0.1300      0.1300    
       0.1300      6.5000E-02  5.2000E-02  2.6000E-02  2.6000E-02  2.6000E-02  2.6000E-02  5.2000E-02  5.2000E-02  5.2000E-02
       6.5000E-02  0.1300      6.5000E-02  6.5000E-02  6.5000E-02  5.2000E-02  5.2000E-02  5.2000E-02  6.5000E-02  0.1300    
       0.1300      0.1300      6.5000E-02  6.5000E-02  6.5000E-02  6.5000E-02  6.5000E-02   0.000       0.000    
  59   2.6000E-02  2.6000E-02  5.2000E-02  5.2000E-02  5.2000E-02  5.2000E-02  5.2000E-02  5.2000E-02  5.2000E-02  5.2000E-02
       5.2000E-02  2.6000E-02  2.6000E-02  2.6000E-02  2.6000E-02  2.6000E-02  2.6000E-02  5.2000E-02  5.2000E-02  5.2000E-02
       5.2000E-02  5.2000E-02  5.2000E-02  5.2000E-02  5.2000E-02  5.2000E-02  5.2000E-02  5.2000E-02  6.5000E-02  6.5000E-02
       6.5000E-02  6.5000E-02  0.1300      0.1300      0.1300      0.1300      0.3900      0.3900      0.3900      6.5000E-02
       5.2000E-02  5.2000E-02  2.6000E-02  2.6000E-02  2.6000E-02  2.6000E-02  2.6000E-02  5.2000E-02  0.1300      5.2000E-02
       0.1300      6.5000E-02  5.2000E-02  2.6000E-02  2.6000E-02  2.6000E-02  2.6000E-02  5.2000E-02  5.2000E-02  5.2000E-02
       6.5000E-02  6.5000E-02  6.5000E-02  5.2000E-02  5.2000E-02  5.2000E-02  5.2000E-02  5.2000E-02  6.5000E-02  0.1300    
       0.1300      0.1300      6.5000E-02  6.5000E-02  6.5000E-02  6.5000E-02  6.5000E-02  6.5000E-02   0.000    
  60    0.000      2.6000E-02  2.6000E-02  5.2000E-02  5.2000E-02  5.2000E-02  2.6000E-02  2.6000E-02  2.6000E-02  2.6000E-02
       2.6000E-02  2.6000E-02  2.6000E-02   0.000       0.000       0.000      2.6000E-02  2.6000E-02  5.2000E-02  5.2000E-02
       5.2000E-02  5.2000E-02  5.2000E-02  5.2000E-02  5.2000E-02  5.2000E-02  5.2000E-02  5.2000E-02  5.2000E-02  6.5000E-02
       6.5000E-02  6.5000E-02  6.5000E-02  0.1300      0.1300      0.1300      0.3900      0.3900      0.3900      6.5000E-02
       5.2000E-02  5.2000E-02  2.6000E-02  2.6000E-02  2.6000E-02  2.6000E-02  2.6000E-02  5.2000E-02  5.2000E-02  5.2000E-02
       0.1300      6.5000E-02  5.2000E-02  2.6000E-02  5.2000E-02  5.2000E-02  5.2000E-02  5.2000E-02  5.2000E-02  6.5000E-02
       6.5000E-02  6.5000E-02  5.2000E-02  5.2000E-02  5.2000E-02  5.2000E-02  5.2000E-02  5.2000E-02  6.5000E-02  0.1300    
       0.1300      6.5000E-02  6.5000E-02  6.5000E-02  6.5000E-02  6.5000E-02  6.5000E-02  6.5000E-02  6.5000E-02
  61    0.000       0.000      2.6000E-02  2.6000E-02  2.6000E-02  2.6000E-02  2.6000E-02  2.6000E-02  2.6000E-02  2.6000E-02
       2.6000E-02   0.000       0.000       0.000       0.000       0.000       0.000      2.6000E-02  2.6000E-02  5.2000E-02
       5.2000E-02  5.2000E-02  5.2000E-02  5.2000E-02  5.2000E-02  5.2000E-02  5.2000E-02  5.2000E-02  5.2000E-02  5.2000E-02
       6.5000E-02  6.5000E-02  6.5000E-02  0.1300      0.1300      0.1300      0.3900      0.3900      0.3900      6.5000E-02
       5.2000E-02  5.2000E-02  2.6000E-02  2.6000E-02  2.6000E-02  2.6000E-02  2.6000E-02  2.6000E-02  5.2000E-02  5.2000E-02
       0.1300      0.1300      5.2000E-02  5.2000E-02  5.2000E-02  5.2000E-02  5.2000E-02  5.2000E-02  5.2000E-02  5.2000E-02
       5.2000E-02  5.2000E-02  5.2000E-02  5.2000E-02  5.2000E-02  5.2000E-02  5.2000E-02  5.2000E-02  6.5000E-02  0.1300    
       0.1300      6.5000E-02  6.5000E-02  6.5000E-02  6.5000E-02  6.5000E-02  6.5000E-02  6.5000E-02  6.5000E-02
  62    0.000       0.000       0.000      2.6000E-02   0.000       0.000       0.000       0.000       0.000       0.000    
        0.000       0.000       0.000       0.000       0.000       0.000       0.000       0.000       0.000      2.6000E-02
       5.2000E-02  5.2000E-02  5.2000E-02  5.2000E-02  5.2000E-02  5.2000E-02  5.2000E-02  5.2000E-02  5.2000E-02  5.2000E-02
       6.5000E-02  6.5000E-02  6.5000E-02  0.1300      0.1300      0.1300      0.3900      0.3900      0.1300      6.5000E-02
       5.2000E-02  5.2000E-02  2.6000E-02  2.6000E-02  2.6000E-02  2.6000E-02  2.6000E-02  2.6000E-02  5.2000E-02  5.2000E-02
       5.2000E-02  5.2000E-02  0.1300      5.2000E-02  5.2000E-02  5.2000E-02  5.2000E-02  5.2000E-02  5.2000E-02  5.2000E-02
       5.2000E-02  5.2000E-02  5.2000E-02  5.2000E-02  5.2000E-02  5.2000E-02  5.2000E-02  5.2000E-02  6.5000E-02  0.1300    
       6.5000E-02  6.5000E-02  6.5000E-02  6.5000E-02  6.5000E-02  6.5000E-02  6.5000E-02  5.2000E-02  5.2000E-02
  63    0.000       0.000       0.000       0.000       0.000       0.000       0.000       0.000       0.000       0.000    
        0.000       0.000       0.000       0.000       0.000       0.000       0.000       0.000       0.000      2.6000E-02
       2.6000E-02  2.6000E-02  5.2000E-02  5.2000E-02  5.2000E-02  5.2000E-02  5.2000E-02  5.2000E-02  5.2000E-02  5.2000E-02
       5.2000E-02  6.5000E-02  6.5000E-02  0.1300      0.1300      0.1300      0.3900      0.3900      0.1300      6.5000E-02
       6.5000E-02  5.2000E-02  5.2000E-02  2.6000E-02  2.6000E-02  2.6000E-02  2.6000E-02  2.6000E-02  2.6000E-02  2.6000E-02
       5.2000E-02  5.2000E-02  0.1300      0.1300      5.2000E-02  5.2000E-02  5.2000E-02  5.2000E-02  5.2000E-02  5.2000E-02
       5.2000E-02  5.2000E-02  5.2000E-02  5.2000E-02  5.2000E-02  5.2000E-02  5.2000E-02  5.2000E-02  6.5000E-02  6.5000E-02
       6.5000E-02  6.5000E-02  6.5000E-02  6.5000E-02  6.5000E-02  6.5000E-02  6.5000E-02  5.2000E-02  5.2000E-02
  64    0.000       0.000       0.000       0.000       0.000       0.000       0.000       0.000       0.000       0.000    
        0.000       0.000       0.000       0.000       0.000       0.000       0.000       0.000       0.000       0.000    
        0.000       0.000       0.000       0.000      5.2000E-02  5.2000E-02  5.2000E-02  5.2000E-02  5.2000E-02  5.2000E-02
       5.2000E-02  5.2000E-02  6.5000E-02  6.5000E-02  0.1300      0.1300      0.1300      0.3900      0.3900      0.1300    
       5.2000E-02  5.2000E-02  5.2000E-02  2.6000E-02  2.6000E-02  2.6000E-02  2.6000E-02  2.6000E-02  2.6000E-02  2.6000E-02
       5.2000E-02  5.2000E-02  6.5000E-02  0.1300      5.2000E-02  5.2000E-02  5.2000E-02  5.2000E-02  5.2000E-02  5.2000E-02
       5.2000E-02  5.2000E-02  5.2000E-02  5.2000E-02  5.2000E-02  5.2000E-02  5.2000E-02  6.5000E-02  6.5000E-02  6.5000E-02
       6.5000E-02  6.5000E-02  6.5000E-02  6.5000E-02  6.5000E-02  6.5000E-02  5.2000E-02  5.2000E-02  5.2000E-02
  65    0.000       0.000       0.000       0.000       0.000       0.000       0.000       0.000       0.000       0.000    
        0.000       0.000       0.000       0.000       0.000       0.000       0.000       0.000       0.000       0.000    
        0.000       0.000       0.000       0.000       0.000       0.000       0.000       0.000       0.000       0.000    
        0.000       0.000       0.000      6.5000E-02  0.1300      0.1300      0.1300      0.1300      0.1300      0.1300    
       5.2000E-02  5.2000E-02  5.2000E-02  2.6000E-02  2.6000E-02   0.000       0.000       0.000       0.000      2.6000E-02
       2.6000E-02  5.2000E-02  6.5000E-02  6.5000E-02  5.2000E-02  5.2000E-02  5.2000E-02  5.2000E-02  5.2000E-02  5.2000E-02
       5.2000E-02  5.2000E-02  5.2000E-02  5.2000E-02  5.2000E-02  5.2000E-02  5.2000E-02  6.5000E-02  6.5000E-02  6.5000E-02
       6.5000E-02  6.5000E-02  6.5000E-02  6.5000E-02  6.5000E-02  6.5000E-02  6.5000E-02  5.2000E-02  5.2000E-02
  66    0.000       0.000       0.000       0.000       0.000       0.000       0.000       0.000       0.000       0.000    
        0.000       0.000       0.000       0.000       0.000       0.000       0.000       0.000       0.000       0.000    
        0.000       0.000       0.000       0.000       0.000       0.000       0.000       0.000       0.000       0.000    
        0.000       0.000       0.000       0.000       0.000      6.5000E-02  6.5000E-02   0.000       0.000       0.000    
        0.000       0.000       0.000       0.000       0.000       0.000       0.000       0.000       0.000       0.000    
       2.6000E-02  5.2000E-02  6.5000E-02  6.5000E-02  6.5000E-02  5.2000E-02  5.2000E-02  5.2000E-02  5.2000E-02  5.2000E-02
       5.2000E-02  5.2000E-02  5.2000E-02  5.2000E-02  5.2000E-02  5.2000E-02  5.2000E-02  5.2000E-02  6.5000E-02  6.5000E-02
       6.5000E-02  6.5000E-02  6.5000E-02  6.5000E-02  6.5000E-02  6.5000E-02  6.5000E-02  5.2000E-02  5.2000E-02
  67    0.000       0.000       0.000       0.000       0.000       0.000       0.000       0.000       0.000       0.000    
        0.000       0.000       0.000       0.000       0.000       0.000       0.000       0.000       0.000       0.000    
        0.000       0.000       0.000       0.000       0.000       0.000       0.000       0.000       0.000       0.000    
        0.000       0.000       0.000       0.000       0.000       0.000       0.000       0.000       0.000       0.000    
        0.000       0.000       0.000       0.000       0.000       0.000       0.000       0.000       0.000       0.000    
        0.000       0.000      2.6000E-02  6.5000E-02  5.2000E-02  5.2000E-02  5.2000E-02  5.2000E-02  5.2000E-02  2.6000E-02
       2.6000E-02  2.6000E-02  2.6000E-02  2.6000E-02  5.2000E-02  5.2000E-02  5.2000E-02  5.2000E-02  6.5000E-02  6.5000E-02
       6.5000E-02   0.000       0.000       0.000       0.000       0.000       0.000       0.000       0.000    
  68    0.000       0.000       0.000       0.000       0.000       0.000       0.000       0.000       0.000       0.000    
        0.000       0.000       0.000       0.000       0.000       0.000       0.000       0.000       0.000       0.000    
        0.000       0.000       0.000       0.000       0.000       0.000       0.000       0.000       0.000       0.000    
        0.000       0.000       0.000       0.000       0.000       0.000       0.000       0.000       0.000       0.000    
        0.000       0.000       0.000       0.000       0.000       0.000       0.000       0.000       0.000       0.000    
        0.000       0.000       0.000      2.6000E-02  5.2000E-02  5.2000E-02  5.2000E-02  2.6000E-02  2.6000E-02  2.6000E-02
       2.6000E-02  2.6000E-02  2.6000E-02  2.6000E-02  5.2000E-02  5.2000E-02  5.2000E-02  6.5000E-02   0.000       0.000    
        0.000       0.000       0.000       0.000       0.000       0.000       0.000       0.000       0.000    
  69    0.000       0.000       0.000       0.000       0.000       0.000       0.000       0.000       0.000       0.000    
        0.000       0.000       0.000       0.000       0.000       0.000       0.000       0.000       0.000       0.000    
        0.000       0.000       0.000       0.000       0.000       0.000       0.000       0.000       0.000       0.000    
        0.000       0.000       0.000       0.000       0.000       0.000       0.000       0.000       0.000       0.000    
        0.000       0.000       0.000       0.000       0.000       0.000       0.000       0.000       0.000       0.000    
        0.000       0.000       0.000       0.000       0.000       0.000       0.000       0.000       0.000       0.000    
       2.6000E-02  2.6000E-02  2.6000E-02  2.6000E-02  6.5000E-02  6.5000E-02  6.5000E-02   0.000       0.000       0.000    
        0.000       0.000       0.000       0.000       0.000       0.000       0.000       0.000       0.000    
  70    0.000       0.000       0.000       0.000       0.000       0.000       0.000       0.000       0.000       0.000    
        0.000       0.000       0.000       0.000       0.000       0.000       0.000       0.000       0.000       0.000    
        0.000       0.000       0.000       0.000       0.000       0.000       0.000       0.000       0.000       0.000    
        0.000       0.000       0.000       0.000       0.000       0.000       0.000       0.000       0.000       0.000    
        0.000       0.000       0.000       0.000       0.000       0.000       0.000       0.000       0.000       0.000    
        0.000       0.000       0.000       0.000       0.000       0.000       0.000       0.000       0.000       0.000    
        0.000      2.6000E-02  2.6000E-02  2.6000E-02  6.5000E-02  6.5000E-02   0.000       0.000       0.000       0.000    
        0.000       0.000       0.000       0.000       0.000       0.000       0.000       0.000       0.000    
  71    0.000       0.000       0.000       0.000       0.000       0.000       0.000       0.000       0.000       0.000    
        0.000       0.000       0.000       0.000       0.000       0.000       0.000       0.000       0.000       0.000    
        0.000       0.000       0.000       0.000       0.000       0.000       0.000       0.000       0.000       0.000    
        0.000       0.000       0.000       0.000       0.000       0.000       0.000       0.000       0.000       0.000    
        0.000       0.000       0.000       0.000       0.000       0.000       0.000       0.000       0.000       0.000    
        0.000       0.000       0.000       0.000       0.000       0.000       0.000       0.000       0.000       0.000    
        0.000       0.000      2.6000E-02  5.2000E-02   0.000       0.000       0.000       0.000       0.000       0.000    
        0.000       0.000       0.000       0.000       0.000       0.000       0.000       0.000       0.000    

         SPECIFIC STORAGE =  2.000000E-06 FOR LAYER   1



                     SPECIFIC YIELD FOR LAYER   1
 READING ON UNIT   12 WITH FORMAT: (FREE)              

            1           2           3           4           5           6           7           8           9          10
           11          12          13          14          15          16          17          18          19          20
           21          22          23          24          25          26          27          28          29          30
           31          32          33          34          35          36          37          38          39          40
           41          42          43          44          45          46          47          48          49          50
           51          52          53          54          55          56          57          58          59          60
           61          62          63          64          65          66          67          68          69          70
           71          72          73          74          75          76          77          78          79
 ........................................................................................................................
   1    0.000       0.000       0.000       0.000       0.000       0.000       0.000       0.000       0.000       0.000    
        0.000       0.000       0.000       0.000       0.000       0.000       0.000       0.000       0.000       0.000    
        0.000       0.000       0.000       0.000       0.000       0.000       0.000       0.000       0.000       0.000    
        0.000       0.000       0.000       0.000       0.000       0.000       0.000       0.000       0.000       0.000    
        0.000       0.000       0.000       0.000       0.000       0.000       0.000       0.000       0.000       0.000    
        0.000      8.0000E-02  8.0000E-02   0.000       0.000       0.000       0.000       0.000       0.000       0.000    
        0.000       0.000       0.000       0.000       0.000       0.000       0.000       0.000       0.000       0.000    
        0.000       0.000       0.000       0.000       0.000       0.000       0.000       0.000       0.000    
   2    0.000       0.000       0.000       0.000       0.000       0.000       0.000       0.000       0.000       0.000    
        0.000       0.000       0.000       0.000       0.000       0.000       0.000       0.000       0.000       0.000    
        0.000       0.000       0.000       0.000       0.000       0.000       0.000       0.000       0.000       0.000    
        0.000       0.000       0.000       0.000       0.000       0.000       0.000       0.000       0.000       0.000    
        0.000       0.000       0.000       0.000       0.000       0.000       0.000       0.000       0.000       0.000    
        0.000      8.0000E-02  9.0000E-02  9.0000E-02   0.000       0.000       0.000       0.000       0.000       0.000    
        0.000       0.000       0.000       0.000       0.000       0.000       0.000       0.000       0.000       0.000    
        0.000       0.000       0.000       0.000       0.000       0.000       0.000       0.000       0.000    
   3    0.000       0.000       0.000       0.000       0.000       0.000       0.000       0.000       0.000       0.000    
        0.000       0.000       0.000       0.000       0.000       0.000       0.000       0.000       0.000       0.000    
        0.000       0.000       0.000       0.000       0.000       0.000       0.000       0.000       0.000       0.000    
        0.000       0.000       0.000       0.000       0.000       0.000       0.000       0.000       0.000       0.000    
        0.000       0.000       0.000       0.000       0.000       0.000       0.000       0.000       0.000       0.000    
        0.000      8.0000E-02  9.0000E-02  0.1500       0.000       0.000       0.000       0.000       0.000       0.000    
        0.000       0.000       0.000       0.000       0.000       0.000       0.000       0.000       0.000       0.000    
        0.000       0.000       0.000       0.000       0.000       0.000       0.000       0.000       0.000    
   4    0.000       0.000       0.000       0.000       0.000       0.000       0.000       0.000       0.000       0.000    
        0.000       0.000       0.000       0.000       0.000       0.000       0.000       0.000       0.000       0.000    
        0.000       0.000       0.000       0.000       0.000       0.000       0.000       0.000       0.000       0.000    
        0.000       0.000       0.000       0.000       0.000       0.000       0.000       0.000       0.000       0.000    
        0.000       0.000       0.000       0.000       0.000       0.000       0.000       0.000       0.000       0.000    
        0.000      9.0000E-02  9.0000E-02  0.1500      0.1500       0.000       0.000       0.000       0.000       0.000    
        0.000       0.000       0.000       0.000       0.000       0.000       0.000       0.000       0.000       0.000    
        0.000       0.000       0.000       0.000       0.000       0.000       0.000       0.000       0.000    
   5    0.000       0.000       0.000       0.000       0.000       0.000       0.000       0.000       0.000       0.000    
        0.000       0.000       0.000       0.000       0.000       0.000       0.000       0.000       0.000       0.000    
        0.000       0.000       0.000       0.000       0.000       0.000       0.000       0.000       0.000       0.000    
        0.000       0.000       0.000       0.000       0.000       0.000       0.000       0.000       0.000       0.000    
        0.000       0.000       0.000       0.000       0.000       0.000       0.000       0.000       0.000       0.000    
        0.000      9.0000E-02  9.0000E-02  9.0000E-02  0.1500      9.0000E-02  9.0000E-02   0.000       0.000       0.000    
        0.000       0.000       0.000       0.000       0.000       0.000       0.000       0.000       0.000       0.000    
        0.000       0.000       0.000       0.000       0.000       0.000       0.000       0.000       0.000    
   6    0.000       0.000       0.000       0.000       0.000       0.000       0.000       0.000       0.000       0.000    
        0.000       0.000       0.000       0.000       0.000       0.000       0.000       0.000       0.000       0.000    
        0.000       0.000       0.000       0.000       0.000       0.000       0.000       0.000       0.000       0.000    
        0.000       0.000       0.000       0.000       0.000       0.000       0.000       0.000       0.000       0.000    
        0.000       0.000       0.000       0.000       0.000       0.000       0.000       0.000       0.000       0.000    
        0.000      9.0000E-02  9.0000E-02  9.0000E-02  0.1500      0.1500      9.0000E-02  9.0000E-02  9.0000E-02   0.000    
        0.000       0.000       0.000      9.0000E-02  9.0000E-02   0.000       0.000       0.000       0.000       0.000    
        0.000       0.000       0.000       0.000       0.000       0.000       0.000       0.000       0.000    
   7    0.000       0.000       0.000       0.000       0.000       0.000       0.000       0.000       0.000       0.000    
        0.000       0.000       0.000       0.000       0.000       0.000       0.000       0.000       0.000       0.000    
        0.000       0.000       0.000       0.000       0.000       0.000       0.000       0.000       0.000       0.000    
        0.000       0.000       0.000       0.000       0.000       0.000       0.000       0.000       0.000       0.000    
        0.000       0.000       0.000       0.000       0.000       0.000       0.000       0.000       0.000       0.000    
        0.000      9.0000E-02  9.0000E-02  9.0000E-02  0.1500      0.1500      0.1500      9.0000E-02  9.0000E-02  9.0000E-02
       9.0000E-02  9.0000E-02  9.0000E-02  9.0000E-02  9.0000E-02  9.0000E-02   0.000       0.000       0.000       0.000    
        0.000       0.000       0.000       0.000       0.000       0.000       0.000       0.000       0.000    
   8    0.000       0.000       0.000       0.000       0.000       0.000       0.000       0.000       0.000       0.000    
        0.000       0.000       0.000       0.000       0.000       0.000       0.000       0.000       0.000       0.000    
        0.000       0.000       0.000       0.000       0.000       0.000       0.000       0.000       0.000       0.000    
        0.000       0.000       0.000       0.000       0.000       0.000       0.000       0.000       0.000       0.000    
        0.000       0.000       0.000       0.000       0.000       0.000       0.000       0.000       0.000       0.000    
        0.000      9.0000E-02  9.0000E-02  9.0000E-02  0.1500      0.1500      0.1500      9.0000E-02  9.0000E-02  9.0000E-02
       9.0000E-02  9.0000E-02  9.0000E-02  9.0000E-02  9.0000E-02  9.0000E-02  9.0000E-02  9.0000E-02   0.000       0.000    
        0.000       0.000       0.000       0.000       0.000       0.000       0.000       0.000       0.000    
   9    0.000       0.000       0.000       0.000       0.000       0.000       0.000       0.000       0.000       0.000    
        0.000       0.000       0.000       0.000       0.000       0.000       0.000       0.000       0.000       0.000    
        0.000       0.000       0.000       0.000       0.000       0.000       0.000       0.000       0.000       0.000    
        0.000       0.000       0.000       0.000       0.000       0.000       0.000       0.000       0.000       0.000    
        0.000       0.000       0.000       0.000       0.000       0.000       0.000       0.000       0.000       0.000    
       8.0000E-02  9.0000E-02  9.0000E-02  9.0000E-02  0.1500      0.1500      0.1500      9.0000E-02  9.0000E-02  9.0000E-02
       9.0000E-02  9.0000E-02  9.0000E-02  9.0000E-02  9.0000E-02  9.0000E-02  9.0000E-02  9.0000E-02  9.0000E-02   0.000    
        0.000       0.000       0.000       0.000       0.000       0.000       0.000       0.000       0.000    
  10    0.000       0.000       0.000       0.000       0.000       0.000       0.000       0.000       0.000       0.000    
        0.000       0.000       0.000       0.000       0.000       0.000       0.000       0.000       0.000       0.000    
        0.000       0.000       0.000       0.000       0.000       0.000       0.000       0.000       0.000       0.000    
        0.000       0.000       0.000       0.000       0.000       0.000       0.000       0.000       0.000       0.000    
        0.000       0.000       0.000       0.000       0.000       0.000       0.000       0.000       0.000      9.0000E-02
       9.0000E-02  9.0000E-02  9.0000E-02  9.0000E-02  9.0000E-02  0.1500      0.1500      0.1500      9.0000E-02  9.0000E-02
       9.0000E-02  9.0000E-02  9.0000E-02  9.0000E-02  9.0000E-02  9.0000E-02  9.0000E-02  9.0000E-02  9.0000E-02  9.0000E-02
        0.000       0.000       0.000       0.000       0.000       0.000       0.000       0.000       0.000    
  11    0.000       0.000       0.000       0.000       0.000       0.000       0.000       0.000       0.000       0.000    
        0.000       0.000       0.000       0.000       0.000       0.000       0.000       0.000       0.000       0.000    
        0.000       0.000       0.000       0.000       0.000       0.000       0.000       0.000       0.000       0.000    
        0.000       0.000       0.000       0.000       0.000       0.000       0.000       0.000       0.000       0.000    
        0.000       0.000       0.000       0.000       0.000       0.000       0.000       0.000      9.0000E-02  9.0000E-02
       9.0000E-02  9.0000E-02  9.0000E-02  9.0000E-02  9.0000E-02  0.1500      0.1500      0.1500      9.0000E-02  9.0000E-02
       9.0000E-02  9.0000E-02  9.0000E-02  9.0000E-02  9.0000E-02  9.0000E-02  9.0000E-02  9.0000E-02  9.0000E-02  9.0000E-02
       9.0000E-02   0.000       0.000       0.000       0.000       0.000       0.000       0.000       0.000    
  12    0.000       0.000       0.000       0.000       0.000       0.000       0.000       0.000       0.000       0.000    
        0.000       0.000       0.000       0.000       0.000       0.000       0.000       0.000       0.000       0.000    
        0.000       0.000       0.000       0.000       0.000       0.000       0.000       0.000       0.000       0.000    
        0.000       0.000       0.000       0.000       0.000       0.000       0.000       0.000       0.000       0.000    
        0.000      8.0000E-02  8.0000E-02   0.000       0.000       0.000       0.000      8.0000E-02  9.0000E-02  9.0000E-02
       9.0000E-02  9.0000E-02  9.0000E-02  9.0000E-02  9.0000E-02  0.1500      0.1500      0.1500      9.0000E-02  9.0000E-02
       9.0000E-02  9.0000E-02  9.0000E-02  9.0000E-02  9.0000E-02  9.0000E-02  9.0000E-02  9.0000E-02  9.0000E-02  9.0000E-02
       9.0000E-02   0.000       0.000       0.000       0.000       0.000       0.000       0.000       0.000    
  13    0.000       0.000       0.000       0.000       0.000       0.000       0.000       0.000       0.000       0.000    
        0.000       0.000       0.000       0.000       0.000       0.000       0.000       0.000       0.000       0.000    
        0.000       0.000       0.000       0.000       0.000       0.000       0.000       0.000       0.000       0.000    
        0.000       0.000       0.000       0.000       0.000       0.000       0.000       0.000      8.0000E-02  8.0000E-02
       8.0000E-02  8.0000E-02  8.0000E-02  8.0000E-02  8.0000E-02  8.0000E-02  8.0000E-02  8.0000E-02  9.0000E-02  9.0000E-02
       9.0000E-02  9.0000E-02  9.0000E-02  9.0000E-02  9.0000E-02  0.1500      0.1500      0.1500      9.0000E-02  9.0000E-02
       9.0000E-02  9.0000E-02  9.0000E-02  9.0000E-02  9.0000E-02  9.0000E-02  9.0000E-02  9.0000E-02  9.0000E-02  9.0000E-02
       9.0000E-02  9.0000E-02   0.000       0.000       0.000       0.000       0.000       0.000       0.000    
  14    0.000       0.000       0.000       0.000       0.000       0.000       0.000       0.000       0.000       0.000    
        0.000       0.000       0.000       0.000       0.000       0.000       0.000       0.000       0.000       0.000    
        0.000       0.000       0.000       0.000       0.000       0.000       0.000       0.000       0.000       0.000    
        0.000       0.000       0.000       0.000       0.000       0.000       0.000       0.000      8.0000E-02  8.0000E-02
       8.0000E-02  8.0000E-02  8.0000E-02  8.0000E-02  9.0000E-02  9.0000E-02  9.0000E-02  9.0000E-02  9.0000E-02  9.0000E-02
       9.0000E-02  9.0000E-02  9.0000E-02  9.0000E-02  9.0000E-02  0.1500      0.1500      0.1500      0.1500      0.1500    
       9.0000E-02  9.0000E-02  9.0000E-02  9.0000E-02  9.0000E-02  9.0000E-02  9.0000E-02  0.1500      9.0000E-02  9.0000E-02
       9.0000E-02  9.0000E-02  9.0000E-02   0.000       0.000       0.000       0.000       0.000       0.000    
  15    0.000       0.000       0.000       0.000       0.000       0.000       0.000       0.000       0.000       0.000    
        0.000       0.000       0.000       0.000       0.000       0.000       0.000       0.000       0.000       0.000    
        0.000       0.000       0.000       0.000       0.000       0.000       0.000       0.000       0.000       0.000    
        0.000       0.000       0.000       0.000       0.000       0.000       0.000      8.0000E-02  8.0000E-02  8.0000E-02
       9.0000E-02  9.0000E-02  9.0000E-02  9.0000E-02  9.0000E-02  9.0000E-02  9.0000E-02  9.0000E-02  9.0000E-02  9.0000E-02
       9.0000E-02  9.0000E-02  9.0000E-02  9.0000E-02  9.0000E-02  9.0000E-02  0.1500      0.1500      0.1500      0.1500    
       0.1500      9.0000E-02  9.0000E-02  0.1500      0.1500      0.1500      0.1500      0.1500      0.1500      9.0000E-02
       9.0000E-02  9.0000E-02  9.0000E-02   0.000       0.000       0.000       0.000       0.000       0.000    
  16    0.000       0.000       0.000       0.000       0.000       0.000       0.000       0.000       0.000       0.000    
        0.000       0.000       0.000       0.000       0.000       0.000       0.000       0.000       0.000       0.000    
        0.000       0.000       0.000       0.000       0.000       0.000       0.000       0.000       0.000       0.000    
        0.000       0.000       0.000       0.000       0.000       0.000      8.0000E-02  8.0000E-02  8.0000E-02  8.0000E-02
       8.0000E-02  9.0000E-02  9.0000E-02  9.0000E-02  9.0000E-02  9.0000E-02  9.0000E-02  9.0000E-02  9.0000E-02  9.0000E-02
       9.0000E-02  9.0000E-02  9.0000E-02  9.0000E-02  9.0000E-02  9.0000E-02  0.1500      0.1500      0.1500      0.1500    
       0.1500      0.1500      0.1500      0.1500      0.1500      0.1500      0.1500      0.1500      0.1500      9.0000E-02
       9.0000E-02  9.0000E-02  9.0000E-02  9.0000E-02   0.000       0.000       0.000       0.000       0.000    
  17    0.000       0.000       0.000       0.000       0.000       0.000       0.000       0.000       0.000       0.000    
        0.000       0.000       0.000       0.000       0.000       0.000       0.000       0.000       0.000       0.000    
        0.000       0.000       0.000       0.000       0.000       0.000       0.000       0.000       0.000       0.000    
        0.000       0.000       0.000       0.000       0.000      8.0000E-02  8.0000E-02  8.0000E-02  8.0000E-02  8.0000E-02
       8.0000E-02  9.0000E-02  9.0000E-02  9.0000E-02  9.0000E-02  9.0000E-02  9.0000E-02  9.0000E-02  9.0000E-02  9.0000E-02
       9.0000E-02  9.0000E-02  9.0000E-02  9.0000E-02  9.0000E-02  9.0000E-02  0.1500      0.1500      0.1500      0.1500    
       0.1500      0.1500      0.1500      0.1500      0.1500      0.1500      0.1500      0.1500      0.1500      9.0000E-02
       9.0000E-02  9.0000E-02  9.0000E-02  9.0000E-02   0.000       0.000       0.000       0.000       0.000    
  18    0.000       0.000       0.000       0.000       0.000       0.000       0.000       0.000       0.000       0.000    
        0.000       0.000       0.000       0.000       0.000       0.000       0.000       0.000       0.000       0.000    
        0.000       0.000       0.000       0.000       0.000       0.000       0.000       0.000       0.000       0.000    
        0.000       0.000       0.000       0.000      8.0000E-02  8.0000E-02  8.0000E-02  8.0000E-02  8.0000E-02  8.0000E-02
       8.0000E-02  8.0000E-02  8.0000E-02  9.0000E-02  9.0000E-02  9.0000E-02  9.0000E-02  9.0000E-02  9.0000E-02  9.0000E-02
       9.0000E-02  9.0000E-02  9.0000E-02  9.0000E-02  9.0000E-02  9.0000E-02  0.1500      0.1500      0.1500      0.1500    
       0.1500      0.1500      0.1500      0.1500      0.1500      0.1500      0.1500      0.1500      0.1500      0.1500    
       9.0000E-02  9.0000E-02  9.0000E-02  9.0000E-02   0.000       0.000       0.000       0.000       0.000    
  19    0.000       0.000       0.000       0.000       0.000       0.000       0.000       0.000       0.000       0.000    
        0.000       0.000       0.000       0.000       0.000       0.000       0.000       0.000       0.000       0.000    
        0.000       0.000       0.000       0.000       0.000       0.000       0.000       0.000       0.000       0.000    
        0.000       0.000       0.000      8.0000E-02  8.0000E-02  8.0000E-02  8.0000E-02  8.0000E-02  8.0000E-02  8.0000E-02
       8.0000E-02  8.0000E-02  8.0000E-02  8.0000E-02  9.0000E-02  9.0000E-02  9.0000E-02  9.0000E-02  9.0000E-02  9.0000E-02
       9.0000E-02  9.0000E-02  9.0000E-02  9.0000E-02  9.0000E-02  9.0000E-02  9.0000E-02  0.1500      0.1500      0.1500    
       0.1500      0.1500      0.1500      0.1500      0.1500      0.1500      0.1500      0.1500      0.1500      0.1500    
       9.0000E-02  9.0000E-02  9.0000E-02  9.0000E-02   0.000       0.000       0.000       0.000       0.000    
  20    0.000       0.000       0.000       0.000       0.000       0.000       0.000       0.000       0.000       0.000    
        0.000       0.000       0.000       0.000       0.000       0.000       0.000       0.000       0.000       0.000    
        0.000       0.000       0.000       0.000       0.000       0.000       0.000       0.000       0.000       0.000    
        0.000       0.000       0.000      8.0000E-02  8.0000E-02  8.0000E-02  8.0000E-02  8.0000E-02  8.0000E-02  8.0000E-02
       8.0000E-02  8.0000E-02  8.0000E-02  8.0000E-02  9.0000E-02  9.0000E-02  9.0000E-02  9.0000E-02  9.0000E-02  9.0000E-02
       9.0000E-02  9.0000E-02  9.0000E-02  9.0000E-02  9.0000E-02  9.0000E-02  9.0000E-02  0.1500      0.1500      0.1500    
       0.1500      0.1500      0.1500      0.1500      0.1500      0.1500      0.1500      0.1500      0.1500      0.1500    
       9.0000E-02  9.0000E-02  9.0000E-02  9.0000E-02   0.000       0.000       0.000       0.000       0.000    
  21    0.000       0.000       0.000       0.000       0.000       0.000       0.000       0.000       0.000       0.000    
        0.000       0.000       0.000       0.000       0.000       0.000       0.000       0.000       0.000       0.000    
        0.000       0.000       0.000       0.000       0.000       0.000       0.000       0.000       0.000       0.000    
        0.000       0.000      8.0000E-02  8.0000E-02  8.0000E-02  8.0000E-02  8.0000E-02  8.0000E-02  8.0000E-02  8.0000E-02
       8.0000E-02  8.0000E-02  8.0000E-02  8.0000E-02  8.0000E-02  9.0000E-02  9.0000E-02  9.0000E-02  9.0000E-02  9.0000E-02
       9.0000E-02  9.0000E-02  9.0000E-02  9.0000E-02  9.0000E-02  9.0000E-02  9.0000E-02  9.0000E-02  0.1500      0.1500    
       0.1500      0.1500      0.1500      0.1500      0.1500      0.1500      0.1500      0.1500      0.1500      9.0000E-02
       9.0000E-02  9.0000E-02  9.0000E-02  9.0000E-02  9.0000E-02   0.000       0.000       0.000       0.000    
  22    0.000       0.000       0.000       0.000       0.000       0.000       0.000       0.000       0.000       0.000    
        0.000       0.000       0.000       0.000       0.000       0.000       0.000       0.000       0.000       0.000    
        0.000       0.000       0.000       0.000       0.000       0.000       0.000       0.000       0.000       0.000    
        0.000       0.000      8.0000E-02  8.0000E-02  8.0000E-02  8.0000E-02  8.0000E-02  8.0000E-02  8.0000E-02  8.0000E-02
       8.0000E-02  8.0000E-02  8.0000E-02  8.0000E-02  8.0000E-02  9.0000E-02  9.0000E-02  9.0000E-02  9.0000E-02  9.0000E-02
       9.0000E-02  9.0000E-02  9.0000E-02  9.0000E-02  9.0000E-02  9.0000E-02  9.0000E-02  9.0000E-02  9.0000E-02  9.0000E-02
       9.0000E-02  0.1500      0.1500      0.1500      0.1500      0.1500      0.1500      0.1500      0.1500      9.0000E-02
       9.0000E-02  9.0000E-02  9.0000E-02  9.0000E-02   0.000       0.000       0.000       0.000       0.000    
  23    0.000       0.000       0.000       0.000       0.000       0.000       0.000       0.000       0.000       0.000    
        0.000       0.000       0.000       0.000       0.000       0.000       0.000       0.000       0.000       0.000    
        0.000       0.000       0.000       0.000       0.000       0.000       0.000       0.000       0.000       0.000    
        0.000      8.0000E-02  8.0000E-02  8.0000E-02  8.0000E-02  8.0000E-02  8.0000E-02  8.0000E-02  8.0000E-02  8.0000E-02
       8.0000E-02  8.0000E-02  8.0000E-02  8.0000E-02  8.0000E-02  9.0000E-02  9.0000E-02  0.1500      9.0000E-02  9.0000E-02
       9.0000E-02  9.0000E-02  9.0000E-02  9.0000E-02  9.0000E-02  9.0000E-02  9.0000E-02  9.0000E-02  9.0000E-02  9.0000E-02
       9.0000E-02  9.0000E-02  0.1500      0.1500      0.1500      0.1500      0.1500      0.1500      0.1500      9.0000E-02
       9.0000E-02   0.000       0.000       0.000       0.000       0.000       0.000       0.000       0.000    
  24    0.000       0.000       0.000       0.000       0.000       0.000       0.000       0.000       0.000       0.000    
        0.000       0.000       0.000       0.000       0.000       0.000       0.000       0.000       0.000       0.000    
        0.000       0.000       0.000       0.000       0.000       0.000       0.000       0.000      8.0000E-02  8.0000E-02
       8.0000E-02  8.0000E-02  8.0000E-02  8.0000E-02  8.0000E-02  8.0000E-02  8.0000E-02  8.0000E-02  8.0000E-02  8.0000E-02
       8.0000E-02  8.0000E-02  8.0000E-02  8.0000E-02  8.0000E-02  9.0000E-02  9.0000E-02  0.1500      0.1500      9.0000E-02
       9.0000E-02  9.0000E-02  9.0000E-02  9.0000E-02  9.0000E-02  9.0000E-02  9.0000E-02  9.0000E-02  9.0000E-02  9.0000E-02
       9.0000E-02  9.0000E-02  9.0000E-02  0.1500      0.1500      0.1500      0.1500      0.1500      0.1500      9.0000E-02
       9.0000E-02   0.000       0.000       0.000       0.000       0.000       0.000       0.000       0.000    
  25    0.000       0.000       0.000       0.000       0.000       0.000       0.000       0.000       0.000       0.000    
        0.000       0.000       0.000       0.000       0.000       0.000       0.000       0.000       0.000       0.000    
        0.000       0.000       0.000       0.000       0.000       0.000       0.000      8.0000E-02  8.0000E-02  8.0000E-02
       8.0000E-02  8.0000E-02  8.0000E-02  8.0000E-02  8.0000E-02  8.0000E-02  8.0000E-02  8.0000E-02  8.0000E-02  8.0000E-02
       8.0000E-02  8.0000E-02  8.0000E-02  8.0000E-02  9.0000E-02  9.0000E-02  9.0000E-02  0.1500      0.1500      9.0000E-02
       9.0000E-02  9.0000E-02  9.0000E-02  9.0000E-02  9.0000E-02  9.0000E-02  9.0000E-02  9.0000E-02  9.0000E-02  9.0000E-02
       9.0000E-02  9.0000E-02  9.0000E-02  9.0000E-02  9.0000E-02  0.1500      0.1500      0.1500      0.1500      9.0000E-02
       9.0000E-02   0.000       0.000       0.000       0.000       0.000       0.000       0.000       0.000    
  26    0.000       0.000       0.000       0.000       0.000       0.000       0.000       0.000       0.000       0.000    
        0.000       0.000       0.000       0.000       0.000       0.000       0.000       0.000       0.000       0.000    
        0.000       0.000       0.000       0.000       0.000      8.0000E-02  8.0000E-02  8.0000E-02  8.0000E-02  8.0000E-02
       8.0000E-02  8.0000E-02  8.0000E-02  8.0000E-02  8.0000E-02  8.0000E-02  8.0000E-02  8.0000E-02  8.0000E-02  8.0000E-02
       8.0000E-02  8.0000E-02  9.0000E-02  9.0000E-02  9.0000E-02  9.0000E-02  9.0000E-02  9.0000E-02  0.1500      0.1500    
       0.1500      9.0000E-02  9.0000E-02  9.0000E-02  9.0000E-02  9.0000E-02  9.0000E-02  9.0000E-02  9.0000E-02  9.0000E-02
       9.0000E-02  9.0000E-02  9.0000E-02  9.0000E-02  9.0000E-02  0.1500      0.1500      0.1500      0.1500      9.0000E-02
       9.0000E-02   0.000       0.000       0.000       0.000       0.000       0.000       0.000       0.000    
  27    0.000       0.000       0.000       0.000       0.000       0.000       0.000       0.000       0.000       0.000    
        0.000       0.000       0.000       0.000       0.000       0.000       0.000       0.000       0.000       0.000    
        0.000       0.000       0.000       0.000      8.0000E-02  8.0000E-02  8.0000E-02  8.0000E-02  8.0000E-02  8.0000E-02
       8.0000E-02  8.0000E-02  8.0000E-02  8.0000E-02  8.0000E-02  8.0000E-02  8.0000E-02  8.0000E-02  8.0000E-02  8.0000E-02
       8.0000E-02  9.0000E-02  9.0000E-02  9.0000E-02  9.0000E-02  9.0000E-02  9.0000E-02  9.0000E-02  9.0000E-02  0.1500    
       0.1500      9.0000E-02  9.0000E-02  9.0000E-02  9.0000E-02  9.0000E-02  9.0000E-02  9.0000E-02  9.0000E-02  9.0000E-02
       9.0000E-02  9.0000E-02  9.0000E-02  9.0000E-02  9.0000E-02  0.1500      0.1500      0.1500      0.1500      0.1500    
       9.0000E-02   0.000       0.000       0.000       0.000       0.000       0.000       0.000       0.000    
  28    0.000       0.000       0.000       0.000       0.000       0.000       0.000       0.000       0.000       0.000    
        0.000       0.000       0.000       0.000       0.000       0.000       0.000       0.000       0.000       0.000    
        0.000       0.000       0.000      8.0000E-02  8.0000E-02  8.0000E-02  8.0000E-02  8.0000E-02  8.0000E-02  8.0000E-02
       8.0000E-02  8.0000E-02  8.0000E-02  8.0000E-02  8.0000E-02  8.0000E-02  8.0000E-02  8.0000E-02  9.0000E-02  9.0000E-02
       9.0000E-02  9.0000E-02  9.0000E-02  9.0000E-02  9.0000E-02  9.0000E-02  9.0000E-02  9.0000E-02  9.0000E-02  9.0000E-02
       0.1500      0.1500      9.0000E-02  9.0000E-02  9.0000E-02  9.0000E-02  9.0000E-02  9.0000E-02  9.0000E-02  9.0000E-02
       9.0000E-02  9.0000E-02  9.0000E-02  9.0000E-02  9.0000E-02  9.0000E-02  0.1500      0.1500      0.1500      0.1500    
       9.0000E-02  9.0000E-02   0.000       0.000       0.000       0.000       0.000       0.000       0.000    
  29    0.000       0.000       0.000       0.000       0.000       0.000       0.000       0.000       0.000       0.000    
        0.000       0.000       0.000       0.000       0.000       0.000       0.000       0.000       0.000       0.000    
        0.000      8.0000E-02  8.0000E-02  8.0000E-02  8.0000E-02  8.0000E-02  8.0000E-02  8.0000E-02  8.0000E-02  8.0000E-02
       8.0000E-02  8.0000E-02  8.0000E-02  8.0000E-02  8.0000E-02  8.0000E-02  8.0000E-02  9.0000E-02  9.0000E-02  9.0000E-02
       9.0000E-02  9.0000E-02  9.0000E-02  9.0000E-02  9.0000E-02  9.0000E-02  9.0000E-02  9.0000E-02  9.0000E-02  9.0000E-02
       0.1500      0.1500      9.0000E-02  9.0000E-02  9.0000E-02  9.0000E-02  9.0000E-02  9.0000E-02  9.0000E-02  9.0000E-02
       9.0000E-02  9.0000E-02  9.0000E-02  9.0000E-02  9.0000E-02  9.0000E-02  0.1500      0.1500      0.1500      0.1500    
       9.0000E-02  9.0000E-02   0.000       0.000       0.000       0.000       0.000       0.000       0.000    
  30    0.000       0.000       0.000       0.000       0.000       0.000       0.000       0.000       0.000       0.000    
        0.000       0.000       0.000       0.000       0.000       0.000       0.000       0.000       0.000      8.0000E-02
       8.0000E-02  8.0000E-02  8.0000E-02  8.0000E-02  8.0000E-02  8.0000E-02  8.0000E-02  8.0000E-02  8.0000E-02  8.0000E-02
       8.0000E-02  8.0000E-02  8.0000E-02  8.0000E-02  8.0000E-02  8.0000E-02  8.0000E-02  9.0000E-02  9.0000E-02  9.0000E-02
       9.0000E-02  9.0000E-02  9.0000E-02  9.0000E-02  9.0000E-02  9.0000E-02  9.0000E-02  9.0000E-02  9.0000E-02  9.0000E-02
       0.1500      0.1500      9.0000E-02  9.0000E-02  9.0000E-02  9.0000E-02  9.0000E-02  9.0000E-02  9.0000E-02  9.0000E-02
       9.0000E-02  9.0000E-02  9.0000E-02  9.0000E-02  9.0000E-02  9.0000E-02  0.1500      0.1500      0.1500      0.1500    
       9.0000E-02  9.0000E-02   0.000       0.000       0.000       0.000       0.000       0.000       0.000    
  31    0.000       0.000       0.000       0.000       0.000       0.000       0.000       0.000       0.000       0.000    
        0.000       0.000       0.000       0.000       0.000       0.000       0.000       0.000      8.0000E-02  8.0000E-02
       8.0000E-02  8.0000E-02  8.0000E-02  8.0000E-02  8.0000E-02  8.0000E-02  8.0000E-02  8.0000E-02  8.0000E-02  8.0000E-02
       8.0000E-02  8.0000E-02  8.0000E-02  8.0000E-02  8.0000E-02  8.0000E-02  9.0000E-02  9.0000E-02  9.0000E-02  9.0000E-02
       9.0000E-02  9.0000E-02  9.0000E-02  0.1500      9.0000E-02  9.0000E-02  9.0000E-02  9.0000E-02  9.0000E-02  9.0000E-02
       0.1500      0.1500      9.0000E-02  9.0000E-02  9.0000E-02  9.0000E-02  9.0000E-02  9.0000E-02  9.0000E-02  9.0000E-02
       9.0000E-02  9.0000E-02  9.0000E-02  9.0000E-02  9.0000E-02  9.0000E-02  0.1500      0.1500      0.1500      0.1500    
       9.0000E-02  9.0000E-02   0.000       0.000       0.000       0.000       0.000       0.000       0.000    
  32    0.000       0.000       0.000       0.000       0.000       0.000       0.000       0.000       0.000       0.000    
        0.000       0.000       0.000       0.000       0.000       0.000      8.0000E-02  8.0000E-02  8.0000E-02  8.0000E-02
       8.0000E-02  8.0000E-02  8.0000E-02  8.0000E-02  8.0000E-02  8.0000E-02  8.0000E-02  8.0000E-02  8.0000E-02  8.0000E-02
       8.0000E-02  8.0000E-02  8.0000E-02  8.0000E-02  8.0000E-02  8.0000E-02  9.0000E-02  9.0000E-02  0.1500      0.1500    
       0.1500      0.1500      0.1500      0.1500      9.0000E-02  9.0000E-02  9.0000E-02  9.0000E-02  9.0000E-02  9.0000E-02
       0.1500      0.1500      0.1500      9.0000E-02  9.0000E-02  9.0000E-02  9.0000E-02  9.0000E-02  9.0000E-02  9.0000E-02
       9.0000E-02  9.0000E-02  9.0000E-02  9.0000E-02  9.0000E-02  9.0000E-02  9.0000E-02  0.1500      0.1500      0.1500    
       0.1500      9.0000E-02   0.000       0.000       0.000       0.000       0.000       0.000       0.000    
  33    0.000       0.000       0.000       0.000       0.000       0.000       0.000       0.000       0.000       0.000    
        0.000       0.000       0.000       0.000       0.000      8.0000E-02  8.0000E-02  8.0000E-02  8.0000E-02  8.0000E-02
       8.0000E-02  8.0000E-02  8.0000E-02  8.0000E-02  8.0000E-02  8.0000E-02  8.0000E-02  8.0000E-02  8.0000E-02  8.0000E-02
       8.0000E-02  8.0000E-02  8.0000E-02  8.0000E-02  9.0000E-02  9.0000E-02  9.0000E-02  0.1500      0.1500      0.1500    
       0.1500      0.1500      0.1500      0.1500      0.1500      9.0000E-02  9.0000E-02  9.0000E-02  9.0000E-02  9.0000E-02
       0.1500      0.1500      0.1500      0.1500      0.1500      0.1500      9.0000E-02  9.0000E-02  9.0000E-02  9.0000E-02
       9.0000E-02  9.0000E-02  9.0000E-02  9.0000E-02  9.0000E-02  9.0000E-02  9.0000E-02  0.1500      0.1500      0.1500    
       0.1500      9.0000E-02  9.0000E-02   0.000       0.000       0.000       0.000       0.000       0.000    
  34    0.000       0.000       0.000       0.000       0.000       0.000       0.000       0.000       0.000       0.000    
        0.000       0.000       0.000       0.000      8.0000E-02  8.0000E-02  8.0000E-02  8.0000E-02  8.0000E-02  8.0000E-02
       8.0000E-02  8.0000E-02  8.0000E-02  8.0000E-02  8.0000E-02  8.0000E-02  8.0000E-02  0.1500      8.0000E-02  8.0000E-02
       8.0000E-02  8.0000E-02  8.0000E-02  8.0000E-02  9.0000E-02  9.0000E-02  0.1500      0.1500      0.1500      0.1500    
       0.1500      0.1500      0.1500      0.1500      0.1500      0.1500      0.1500      0.1500      0.1500      0.1500    
       0.1500      0.1500      0.1500      0.1500      0.1500      0.1500      9.0000E-02  9.0000E-02  9.0000E-02  9.0000E-02
       9.0000E-02  9.0000E-02  9.0000E-02  9.0000E-02  9.0000E-02  9.0000E-02  9.0000E-02  0.1500      0.1500      0.1500    
       9.0000E-02  8.0000E-02  8.0000E-02   0.000       0.000       0.000       0.000       0.000       0.000    
  35    0.000       0.000       0.000       0.000       0.000       0.000       0.000       0.000       0.000       0.000    
        0.000       0.000       0.000      8.0000E-02  8.0000E-02  8.0000E-02  8.0000E-02  8.0000E-02  8.0000E-02  8.0000E-02
       8.0000E-02  8.0000E-02  8.0000E-02  8.0000E-02  0.1500      0.1500      0.1500      0.1500      0.1500      0.1500    
       8.0000E-02  8.0000E-02  0.1500      0.1500      0.1500      0.1500      0.1500      0.1500      0.1500      0.1500    
       0.1500      0.1500      0.1500      0.1500      0.1500      0.1500      0.1500      0.1500      0.1500      0.1500    
       0.1500      0.1500      0.1500      0.1500      0.1500      0.1500      9.0000E-02  9.0000E-02  9.0000E-02  9.0000E-02
       9.0000E-02  9.0000E-02  9.0000E-02  9.0000E-02  9.0000E-02  9.0000E-02  9.0000E-02  0.1500      0.1500      9.0000E-02
       9.0000E-02  8.0000E-02  8.0000E-02  8.0000E-02   0.000       0.000       0.000       0.000       0.000    
  36    0.000       0.000       0.000       0.000       0.000       0.000       0.000       0.000       0.000       0.000    
        0.000       0.000       0.000      8.0000E-02  8.0000E-02  8.0000E-02  8.0000E-02  8.0000E-02  8.0000E-02  8.0000E-02
       8.0000E-02  8.0000E-02  8.0000E-02  8.0000E-02  0.1500      0.1500      0.1500      0.1500      0.1500      0.1500    
       0.1500      0.1500      0.1500      0.1500      0.1500      0.1500      0.1500      0.1500      0.1500      0.1500    
       0.1500      0.1500      0.1500      0.1500      0.1500      0.1500      0.1500      0.1500      0.1500      0.1500    
       0.1500      0.1500      0.1500      0.1500      0.1500      0.1500      0.1500      0.1500      0.1500      9.0000E-02
       9.0000E-02  9.0000E-02  0.1500      0.1500      9.0000E-02  9.0000E-02  9.0000E-02  0.1500      0.1500      9.0000E-02
       9.0000E-02  9.0000E-02  8.0000E-02  8.0000E-02  8.0000E-02   0.000       0.000       0.000       0.000    
  37    0.000       0.000       0.000       0.000       0.000       0.000       0.000       0.000       0.000       0.000    
        0.000       0.000      8.0000E-02  8.0000E-02  8.0000E-02  8.0000E-02  8.0000E-02  8.0000E-02  8.0000E-02  8.0000E-02
       8.0000E-02  8.0000E-02  8.0000E-02  0.1500      0.1500      0.1500      0.1500      0.1500      0.1500      0.1500    
       0.1500      0.1500      0.1500      0.1500      0.1500      0.1500      0.1500      0.1500      9.0000E-02  9.0000E-02
       9.0000E-02  9.0000E-02  0.1500      0.1500      0.1500      0.1500      0.1500      0.1500      0.1500      0.1500    
       0.1500      0.1500      0.1500      0.1500      0.1500      0.1500      0.1500      0.1500      0.1500      0.1500    
       0.1500      0.1500      0.1500      0.1500      0.1500      0.1500      0.1500      0.1500      0.1500      0.1500    
       9.0000E-02  9.0000E-02  8.0000E-02  8.0000E-02  8.0000E-02   0.000       0.000       0.000       0.000    
  38    0.000       0.000       0.000       0.000       0.000       0.000       0.000       0.000       0.000       0.000    
       8.0000E-02  8.0000E-02  8.0000E-02  8.0000E-02  8.0000E-02  8.0000E-02  8.0000E-02  8.0000E-02  0.1500      0.1500    
       0.1500      0.1500      0.1500      0.1500      0.1500      0.1500      0.1500      0.1500      0.1500      0.1500    
       0.1500      0.1500      0.1500      0.1500      0.1500      0.1500      0.1500      0.1500      9.0000E-02  9.0000E-02
       9.0000E-02  9.0000E-02  0.1500      0.1500      0.1500      0.1500      9.0000E-02  0.1500      0.1500      0.1500    
       0.1500      0.1500      0.1500      0.1500      0.1500      0.1500      0.1500      0.1500      0.1500      0.1500    
       0.1500      0.1500      0.1500      0.1500      0.1500      0.1500      0.1500      0.1500      0.1500      0.1500    
       0.1500      9.0000E-02  8.0000E-02  8.0000E-02  8.0000E-02  8.0000E-02   0.000       0.000       0.000    
  39    0.000       0.000       0.000       0.000       0.000       0.000       0.000      8.0000E-02  8.0000E-02  8.0000E-02
       8.0000E-02  8.0000E-02  8.0000E-02  8.0000E-02  0.1500      0.1500      0.1500      0.1500      0.1500      0.1500    
       0.1500      0.1500      0.1500      9.0000E-02  9.0000E-02  9.0000E-02  9.0000E-02  9.0000E-02  0.1500      0.1500    
       0.1500      0.1500      0.1500      0.1500      0.1500      0.1500      0.1500      0.1500      9.0000E-02  9.0000E-02
       9.0000E-02  9.0000E-02  9.0000E-02  0.1500      0.1500      9.0000E-02  9.0000E-02  9.0000E-02  0.1500      0.1500    
       0.1500      0.1500      0.1500      0.1500      0.1500      0.1500      0.1500      0.1500      0.1500      0.1500    
       0.1500      0.1500      0.1500      0.1500      0.1500      0.1500      0.1500      0.1500      0.1500      0.1500    
       0.1500      0.1500      0.1500      8.0000E-02  8.0000E-02  0.1500       0.000       0.000       0.000    
  40    0.000       0.000       0.000       0.000       0.000       0.000      8.0000E-02  8.0000E-02  8.0000E-02  8.0000E-02
       8.0000E-02  8.0000E-02  0.1500      0.1500      0.1500      0.1500      0.1500      0.1500      8.0000E-02  8.0000E-02
       8.0000E-02  8.0000E-02  9.0000E-02  9.0000E-02  9.0000E-02  9.0000E-02  9.0000E-02  9.0000E-02  0.1500      0.1500    
       0.1500      0.1500      0.1500      0.1500      0.1500      0.1500      0.1500      0.1500      9.0000E-02  9.0000E-02
       9.0000E-02  9.0000E-02  9.0000E-02  0.1500      0.1500      9.0000E-02  9.0000E-02  9.0000E-02  9.0000E-02  0.1500    
       0.1500      0.1500      0.1500      0.1500      0.1500      0.1500      9.0000E-02  9.0000E-02  0.1500      0.1500    
       0.1500      0.1500      0.1500      0.1500      0.1500      0.1500      0.1500      0.1500      0.1500      0.1500    
       0.1500      0.1500      0.1500      0.1500      0.1500      0.1500       0.000       0.000       0.000    
  41    0.000       0.000       0.000       0.000       0.000      8.0000E-02  8.0000E-02  8.0000E-02  8.0000E-02  8.0000E-02
       8.0000E-02  8.0000E-02  0.1500      0.1500      8.0000E-02  8.0000E-02  8.0000E-02  8.0000E-02  8.0000E-02  8.0000E-02
       8.0000E-02  9.0000E-02  9.0000E-02  9.0000E-02  9.0000E-02  9.0000E-02  9.0000E-02  9.0000E-02  0.1500      0.1500    
       0.1500      0.1500      0.1500      0.1500      0.1500      0.1500      0.1500      0.1500      9.0000E-02  9.0000E-02
       9.0000E-02  9.0000E-02  9.0000E-02  0.1500      0.1500      0.1500      9.0000E-02  9.0000E-02  9.0000E-02  0.1500    
       0.1500      0.1500      8.0000E-02  8.0000E-02  8.0000E-02  8.0000E-02  9.0000E-02  9.0000E-02  9.0000E-02  0.1500    
       0.1500      0.1500      9.0000E-02  0.1500      0.1500      0.1500      9.0000E-02  9.0000E-02  0.1500      0.1500    
       0.1500      0.1500      0.1500      0.1500      0.1500       0.000       0.000       0.000       0.000    
  42    0.000       0.000       0.000       0.000       0.000      8.0000E-02  8.0000E-02  8.0000E-02  8.0000E-02  8.0000E-02
       8.0000E-02  8.0000E-02  8.0000E-02  8.0000E-02  8.0000E-02  8.0000E-02  8.0000E-02  8.0000E-02  8.0000E-02  9.0000E-02
       9.0000E-02  9.0000E-02  9.0000E-02  0.1500      0.1500      0.1500      0.1500      0.1500      0.1500      0.1500    
       0.1500      0.1500      0.1500      0.1500      0.1500      0.1500      0.1500      0.1500      9.0000E-02  9.0000E-02
       9.0000E-02  9.0000E-02  9.0000E-02  0.1500      0.1500      0.1500      9.0000E-02  9.0000E-02  9.0000E-02  9.0000E-02
       8.0000E-02  8.0000E-02  8.0000E-02  8.0000E-02  8.0000E-02  8.0000E-02  8.0000E-02  9.0000E-02  9.0000E-02  0.1500    
       0.1500      0.1500      9.0000E-02  9.0000E-02  9.0000E-02  9.0000E-02  9.0000E-02  9.0000E-02  9.0000E-02  0.1500    
       0.1500      0.1500      0.1500      0.1500      0.1500       0.000       0.000       0.000       0.000    
  43    0.000       0.000       0.000       0.000       0.000      8.0000E-02  8.0000E-02  8.0000E-02  8.0000E-02  8.0000E-02
       8.0000E-02  8.0000E-02  8.0000E-02  8.0000E-02  8.0000E-02  8.0000E-02  8.0000E-02  8.0000E-02  8.0000E-02  9.0000E-02
       9.0000E-02  9.0000E-02  0.1500      0.1500      0.1500      0.1500      0.1500      0.1500      0.1500      0.1500    
       0.1500      0.1500      0.1500      0.1500      0.1500      0.1500      0.1500      9.0000E-02  9.0000E-02  9.0000E-02
       9.0000E-02  9.0000E-02  9.0000E-02  0.1500      0.1500      0.1500      9.0000E-02  9.0000E-02  9.0000E-02  9.0000E-02
       8.0000E-02  8.0000E-02  8.0000E-02  8.0000E-02  8.0000E-02  8.0000E-02  8.0000E-02  9.0000E-02  9.0000E-02  0.1500    
       0.1500      9.0000E-02  9.0000E-02  9.0000E-02  9.0000E-02  9.0000E-02  9.0000E-02  9.0000E-02  9.0000E-02  0.1500    
       0.1500      0.1500      0.1500      0.1500      0.1500       0.000       0.000       0.000       0.000    
  44    0.000       0.000       0.000       0.000       0.000      8.0000E-02  8.0000E-02  8.0000E-02  8.0000E-02  8.0000E-02
       8.0000E-02  8.0000E-02  8.0000E-02  8.0000E-02  8.0000E-02  9.0000E-02  9.0000E-02  9.0000E-02  9.0000E-02  0.1500    
       0.1500      0.1500      0.1500      0.1500      0.1500      0.1500      0.1500      0.1500      0.1500      0.1500    
       0.1500      0.1500      0.1500      0.1500      0.1500      0.1500      0.1500      9.0000E-02  9.0000E-02  9.0000E-02
       9.0000E-02  9.0000E-02  8.0000E-02  8.0000E-02  0.1500      0.1500      9.0000E-02  9.0000E-02  9.0000E-02  9.0000E-02
       9.0000E-02  8.0000E-02  8.0000E-02  8.0000E-02  8.0000E-02  8.0000E-02  8.0000E-02  9.0000E-02  9.0000E-02  0.1500    
       0.1500      9.0000E-02  9.0000E-02  9.0000E-02  9.0000E-02  9.0000E-02  9.0000E-02  9.0000E-02  9.0000E-02  0.1500    
       0.1500      0.1500      0.1500      0.1500      0.1500       0.000       0.000       0.000       0.000    
  45    0.000       0.000       0.000      8.0000E-02  8.0000E-02  8.0000E-02  8.0000E-02  8.0000E-02  8.0000E-02  8.0000E-02
       8.0000E-02  8.0000E-02  8.0000E-02  8.0000E-02  0.1500      0.1500      0.1500      0.1500      0.1500      0.1500    
       0.1500      0.1500      0.1500      0.1500      0.1500      0.1500      0.1500      0.1500      0.1500      0.1500    
       0.1500      0.1500      0.1500      0.1500      0.1500      0.1500      0.1500      0.1500      8.0000E-02  8.0000E-02
       8.0000E-02  8.0000E-02  8.0000E-02  8.0000E-02  0.1500      0.1500      9.0000E-02  9.0000E-02  8.0000E-02  8.0000E-02
       8.0000E-02  8.0000E-02  8.0000E-02  8.0000E-02  8.0000E-02  8.0000E-02  8.0000E-02  9.0000E-02  9.0000E-02  0.1500    
       0.1500      9.0000E-02  9.0000E-02  9.0000E-02  9.0000E-02  9.0000E-02  9.0000E-02  9.0000E-02  9.0000E-02  0.1500    
       0.1500      0.1500      0.1500      9.0000E-02  8.0000E-02   0.000       0.000       0.000       0.000    
  46    0.000       0.000       0.000      8.0000E-02  8.0000E-02  8.0000E-02  8.0000E-02  8.0000E-02  8.0000E-02  8.0000E-02
       8.0000E-02  0.1500      0.1500      0.1500      0.1500      0.1500      0.1500      0.1500      0.1500      0.1500    
       0.1500      0.1500      0.1500      0.1500      0.1500      0.1500      0.1500      0.1500      0.1500      0.1500    
       0.1500      0.1500      0.1500      0.1500      0.1500      0.1500      0.1500      9.0000E-02  8.0000E-02  8.0000E-02
       8.0000E-02  8.0000E-02  8.0000E-02  8.0000E-02  0.1500      0.1500      9.0000E-02  9.0000E-02  8.0000E-02  8.0000E-02
       8.0000E-02  8.0000E-02  8.0000E-02  8.0000E-02  8.0000E-02  8.0000E-02  8.0000E-02  9.0000E-02  9.0000E-02  0.1500    
       0.1500      9.0000E-02  9.0000E-02  9.0000E-02  9.0000E-02  9.0000E-02  9.0000E-02  9.0000E-02  9.0000E-02  0.1500    
       0.1500      0.1500      0.1500      9.0000E-02  9.0000E-02   0.000       0.000       0.000       0.000    
  47    0.000       0.000       0.000      8.0000E-02  8.0000E-02  8.0000E-02  8.0000E-02  8.0000E-02  8.0000E-02  8.0000E-02
       8.0000E-02  0.1500      0.1500      0.1500      0.1500      0.1500      0.1500      0.1500      0.1500      0.1500    
       0.1500      0.1500      0.1500      0.1500      0.1500      0.1500      0.1500      0.1500      0.1500      9.0000E-02
       0.1500      0.1500      0.1500      0.1500      0.1500      0.1500      0.1500      9.0000E-02  8.0000E-02  8.0000E-02
       8.0000E-02  8.0000E-02  8.0000E-02  8.0000E-02  0.1500      0.1500      9.0000E-02  9.0000E-02  8.0000E-02  8.0000E-02
       8.0000E-02  8.0000E-02  8.0000E-02  8.0000E-02  8.0000E-02  8.0000E-02  8.0000E-02  8.0000E-02  9.0000E-02  9.0000E-02
       0.1500      9.0000E-02  9.0000E-02  9.0000E-02  9.0000E-02  9.0000E-02  9.0000E-02  9.0000E-02  9.0000E-02  0.1500    
       0.1500      0.1500      0.1500      9.0000E-02  9.0000E-02   0.000       0.000       0.000       0.000    
  48    0.000       0.000       0.000      8.0000E-02  8.0000E-02  8.0000E-02  8.0000E-02  8.0000E-02  8.0000E-02  8.0000E-02
       8.0000E-02  0.1500      0.1500      0.1500      0.1500      0.1500      0.1500      0.1500      0.1500      0.1500    
       0.1500      0.1500      0.1500      0.1500      9.0000E-02  9.0000E-02  9.0000E-02  9.0000E-02  9.0000E-02  9.0000E-02
       0.1500      0.1500      0.1500      0.1500      0.1500      0.1500      0.1500      0.1500      8.0000E-02  8.0000E-02
       8.0000E-02  8.0000E-02  8.0000E-02  8.0000E-02  0.1500      0.1500      9.0000E-02  9.0000E-02  9.0000E-02  8.0000E-02
       8.0000E-02  8.0000E-02  8.0000E-02  8.0000E-02  8.0000E-02  8.0000E-02  8.0000E-02  8.0000E-02  9.0000E-02  9.0000E-02
       0.1500      0.1500      9.0000E-02  9.0000E-02  9.0000E-02  9.0000E-02  9.0000E-02  9.0000E-02  9.0000E-02  0.1500    
       0.1500      0.1500      0.1500      9.0000E-02  9.0000E-02  9.0000E-02   0.000       0.000       0.000    
  49    0.000       0.000       0.000      8.0000E-02  8.0000E-02  8.0000E-02  8.0000E-02  8.0000E-02  8.0000E-02  8.0000E-02
       0.1500      0.1500      0.1500      0.1500      0.1500      0.1500      0.1500      0.1500      0.1500      9.0000E-02
       9.0000E-02  9.0000E-02  9.0000E-02  9.0000E-02  9.0000E-02  9.0000E-02  9.0000E-02  9.0000E-02  9.0000E-02  9.0000E-02
       0.1500      0.1500      0.1500      0.1500      0.1500      0.1500      0.1500      0.1500      0.1500      8.0000E-02
       8.0000E-02  8.0000E-02  8.0000E-02  8.0000E-02  8.0000E-02  0.1500      0.1500      0.1500      9.0000E-02  8.0000E-02
       8.0000E-02  8.0000E-02  8.0000E-02  8.0000E-02  8.0000E-02  8.0000E-02  8.0000E-02  8.0000E-02  9.0000E-02  9.0000E-02
       0.1500      0.1500      9.0000E-02  9.0000E-02  9.0000E-02  9.0000E-02  9.0000E-02  9.0000E-02  9.0000E-02  0.1500    
       0.1500      0.1500      0.1500      9.0000E-02  9.0000E-02  9.0000E-02   0.000       0.000       0.000    
  50    0.000       0.000       0.000      8.0000E-02  8.0000E-02  8.0000E-02  8.0000E-02  8.0000E-02  8.0000E-02  8.0000E-02
       0.1500      0.1500      0.1500      0.1500      0.1500      9.0000E-02  9.0000E-02  9.0000E-02  9.0000E-02  9.0000E-02
       9.0000E-02  9.0000E-02  9.0000E-02  9.0000E-02  9.0000E-02  9.0000E-02  9.0000E-02  9.0000E-02  9.0000E-02  9.0000E-02
       9.0000E-02  0.1500      0.1500      0.1500      0.1500      0.1500      0.1500      0.1500      0.1500      0.1500    
       8.0000E-02  8.0000E-02  8.0000E-02  8.0000E-02  8.0000E-02  8.0000E-02  0.1500      0.1500      0.1500      8.0000E-02
       8.0000E-02  8.0000E-02  8.0000E-02  8.0000E-02  8.0000E-02  8.0000E-02  8.0000E-02  8.0000E-02  9.0000E-02  9.0000E-02
       0.1500      0.1500      9.0000E-02  9.0000E-02  9.0000E-02  9.0000E-02  9.0000E-02  9.0000E-02  9.0000E-02  0.1500    
       0.1500      0.1500      0.1500      0.1500      9.0000E-02  9.0000E-02   0.000       0.000       0.000    
  51    0.000       0.000       0.000      8.0000E-02  8.0000E-02  8.0000E-02  8.0000E-02  8.0000E-02  8.0000E-02  0.1500    
       0.1500      0.1500      0.1500      0.1500      0.1500      8.0000E-02  8.0000E-02  9.0000E-02  9.0000E-02  9.0000E-02
       9.0000E-02  9.0000E-02  9.0000E-02  9.0000E-02  9.0000E-02  9.0000E-02  9.0000E-02  9.0000E-02  9.0000E-02  9.0000E-02
       9.0000E-02  0.1500      0.1500      0.1500      0.1500      0.1500      0.1500      0.1500      0.1500      0.1500    
       8.0000E-02  8.0000E-02  8.0000E-02  8.0000E-02  8.0000E-02  8.0000E-02  0.1500      0.1500      0.1500      8.0000E-02
       8.0000E-02  8.0000E-02  8.0000E-02  8.0000E-02  8.0000E-02  8.0000E-02  8.0000E-02  8.0000E-02  9.0000E-02  9.0000E-02
       0.1500      0.1500      0.1500      9.0000E-02  9.0000E-02  9.0000E-02  9.0000E-02  9.0000E-02  9.0000E-02  0.1500    
       0.1500      0.1500      0.1500      0.1500      9.0000E-02  9.0000E-02   0.000       0.000       0.000    
  52    0.000       0.000      8.0000E-02  8.0000E-02  8.0000E-02  8.0000E-02  8.0000E-02  8.0000E-02  8.0000E-02  0.1500    
       0.1500      0.1500      0.1500      8.0000E-02  8.0000E-02  8.0000E-02  8.0000E-02  8.0000E-02  8.0000E-02  9.0000E-02
       9.0000E-02  9.0000E-02  9.0000E-02  9.0000E-02  9.0000E-02  9.0000E-02  9.0000E-02  9.0000E-02  9.0000E-02  9.0000E-02
       9.0000E-02  0.1500      0.1500      0.1500      0.1500      0.1500      0.1500      0.1500      0.1500      0.1500    
       8.0000E-02  8.0000E-02  8.0000E-02  8.0000E-02  8.0000E-02  8.0000E-02  8.0000E-02  0.1500      0.1500      8.0000E-02
       8.0000E-02  8.0000E-02  8.0000E-02  8.0000E-02  8.0000E-02  8.0000E-02  8.0000E-02  8.0000E-02  8.0000E-02  9.0000E-02
       0.1500      0.1500      0.1500      9.0000E-02  9.0000E-02  9.0000E-02  9.0000E-02  9.0000E-02  9.0000E-02  0.1500    
       0.1500      0.1500      0.1500      0.1500      9.0000E-02  9.0000E-02   0.000       0.000       0.000    
  53    0.000       0.000      8.0000E-02  8.0000E-02  8.0000E-02  8.0000E-02  8.0000E-02  8.0000E-02  0.1500      0.1500    
       0.1500      0.1500      8.0000E-02  8.0000E-02  8.0000E-02  8.0000E-02  8.0000E-02  8.0000E-02  8.0000E-02  8.0000E-02
       8.0000E-02  9.0000E-02  9.0000E-02  9.0000E-02  9.0000E-02  9.0000E-02  9.0000E-02  9.0000E-02  9.0000E-02  9.0000E-02
       9.0000E-02  0.1500      0.1500      0.1500      0.1500      0.1500      0.1500      0.1500      0.1500      8.0000E-02
       8.0000E-02  8.0000E-02  8.0000E-02  8.0000E-02  8.0000E-02  8.0000E-02  8.0000E-02  0.1500      0.1500      0.1500    
       8.0000E-02  8.0000E-02  8.0000E-02  8.0000E-02  8.0000E-02  8.0000E-02  8.0000E-02  8.0000E-02  8.0000E-02  9.0000E-02
       0.1500      0.1500      0.1500      9.0000E-02  9.0000E-02  9.0000E-02  9.0000E-02  9.0000E-02  9.0000E-02  0.1500    
       0.1500      0.1500      0.1500      0.1500      9.0000E-02  9.0000E-02  9.0000E-02   0.000       0.000    
  54    0.000       0.000      8.0000E-02  8.0000E-02  8.0000E-02  8.0000E-02  8.0000E-02  8.0000E-02  0.1500      0.1500    
       0.1500      8.0000E-02  8.0000E-02  8.0000E-02  8.0000E-02  8.0000E-02  8.0000E-02  8.0000E-02  8.0000E-02  8.0000E-02
       8.0000E-02  9.0000E-02  9.0000E-02  9.0000E-02  9.0000E-02  9.0000E-02  9.0000E-02  9.0000E-02  9.0000E-02  9.0000E-02
       9.0000E-02  0.1500      0.1500      0.1500      0.1500      0.1500      0.1500      0.1500      0.1500      9.0000E-02
       8.0000E-02  8.0000E-02  8.0000E-02  8.0000E-02  8.0000E-02  8.0000E-02  8.0000E-02  0.1500      0.1500      0.1500    
       8.0000E-02  8.0000E-02  8.0000E-02  8.0000E-02  8.0000E-02  8.0000E-02  8.0000E-02  8.0000E-02  8.0000E-02  9.0000E-02
       0.1500      0.1500      0.1500      9.0000E-02  9.0000E-02  9.0000E-02  9.0000E-02  9.0000E-02  9.0000E-02  0.1500    
       0.1500      0.1500      0.1500      0.1500      9.0000E-02  9.0000E-02  9.0000E-02   0.000       0.000    
  55    0.000      8.0000E-02  8.0000E-02  8.0000E-02  8.0000E-02  8.0000E-02  8.0000E-02  0.1500      0.1500      0.1500    
       0.1500      8.0000E-02  8.0000E-02  8.0000E-02  8.0000E-02  8.0000E-02  8.0000E-02  8.0000E-02  8.0000E-02  8.0000E-02
       8.0000E-02  8.0000E-02  9.0000E-02  9.0000E-02  9.0000E-02  9.0000E-02  9.0000E-02  9.0000E-02  9.0000E-02  9.0000E-02
       9.0000E-02  9.0000E-02  0.1500      0.1500      0.1500      0.1500      0.1500      0.1500      0.1500      9.0000E-02
       8.0000E-02  8.0000E-02  8.0000E-02  8.0000E-02  8.0000E-02  8.0000E-02  8.0000E-02  0.1500      0.1500      0.1500    
       8.0000E-02  8.0000E-02  8.0000E-02  8.0000E-02  8.0000E-02  8.0000E-02  8.0000E-02  8.0000E-02  8.0000E-02  9.0000E-02
       0.1500      0.1500      0.1500      9.0000E-02  9.0000E-02  9.0000E-02  9.0000E-02  9.0000E-02  9.0000E-02  0.1500    
       0.1500      0.1500      0.1500      0.1500      0.1500      9.0000E-02  9.0000E-02   0.000       0.000    
  56    0.000      8.0000E-02  8.0000E-02  8.0000E-02  8.0000E-02  8.0000E-02  0.1500      0.1500      0.1500      0.1500    
       0.1500      8.0000E-02  8.0000E-02  8.0000E-02  8.0000E-02  8.0000E-02  8.0000E-02  8.0000E-02  8.0000E-02  8.0000E-02
       8.0000E-02  8.0000E-02  8.0000E-02  9.0000E-02  9.0000E-02  9.0000E-02  9.0000E-02  9.0000E-02  9.0000E-02  9.0000E-02
       9.0000E-02  9.0000E-02  0.1500      0.1500      0.1500      0.1500      0.1500      0.1500      0.1500      9.0000E-02
       8.0000E-02  8.0000E-02  8.0000E-02  8.0000E-02  8.0000E-02  8.0000E-02  8.0000E-02  0.1500      0.1500      0.1500    
       8.0000E-02  8.0000E-02  8.0000E-02  8.0000E-02  8.0000E-02  8.0000E-02  8.0000E-02  8.0000E-02  8.0000E-02  9.0000E-02
       0.1500      0.1500      0.1500      9.0000E-02  9.0000E-02  8.0000E-02  8.0000E-02  8.0000E-02  9.0000E-02  9.0000E-02
       0.1500      0.1500      0.1500      0.1500      0.1500      9.0000E-02  9.0000E-02   0.000       0.000    
  57   8.0000E-02  8.0000E-02  8.0000E-02  8.0000E-02  8.0000E-02  0.1500      0.1500      0.1500      0.1500      8.0000E-02
       8.0000E-02  8.0000E-02  8.0000E-02  8.0000E-02  8.0000E-02  8.0000E-02  8.0000E-02  8.0000E-02  8.0000E-02  8.0000E-02
       8.0000E-02  8.0000E-02  8.0000E-02  8.0000E-02  8.0000E-02  8.0000E-02  9.0000E-02  9.0000E-02  9.0000E-02  9.0000E-02
       9.0000E-02  9.0000E-02  0.1500      0.1500      0.1500      0.1500      0.1500      0.1500      9.0000E-02  9.0000E-02
       8.0000E-02  8.0000E-02  8.0000E-02  8.0000E-02  8.0000E-02  8.0000E-02  8.0000E-02  0.1500      0.1500      0.1500    
       8.0000E-02  8.0000E-02  8.0000E-02  8.0000E-02  8.0000E-02  8.0000E-02  8.0000E-02  8.0000E-02  8.0000E-02  8.0000E-02
       9.0000E-02  0.1500      0.1500      9.0000E-02  9.0000E-02  8.0000E-02  8.0000E-02  8.0000E-02  9.0000E-02  9.0000E-02
       0.1500      0.1500      9.0000E-02  9.0000E-02  9.0000E-02  9.0000E-02  9.0000E-02   0.000       0.000    
  58   8.0000E-02  8.0000E-02  8.0000E-02  8.0000E-02  8.0000E-02  0.1500      8.0000E-02  8.0000E-02  8.0000E-02  8.0000E-02
       8.0000E-02  8.0000E-02  8.0000E-02  8.0000E-02  8.0000E-02  8.0000E-02  8.0000E-02  8.0000E-02  8.0000E-02  8.0000E-02
       8.0000E-02  8.0000E-02  8.0000E-02  8.0000E-02  8.0000E-02  8.0000E-02  8.0000E-02  9.0000E-02  9.0000E-02  9.0000E-02
       9.0000E-02  9.0000E-02  0.1500      0.1500      0.1500      0.1500      0.1500      0.1500      9.0000E-02  9.0000E-02
       8.0000E-02  8.0000E-02  8.0000E-02  8.0000E-02  8.0000E-02  8.0000E-02  8.0000E-02  8.0000E-02  0.1500      0.1500    
       0.1500      9.0000E-02  8.0000E-02  8.0000E-02  8.0000E-02  8.0000E-02  8.0000E-02  8.0000E-02  8.0000E-02  8.0000E-02
       9.0000E-02  0.1500      9.0000E-02  9.0000E-02  9.0000E-02  8.0000E-02  8.0000E-02  8.0000E-02  9.0000E-02  0.1500    
       0.1500      0.1500      9.0000E-02  9.0000E-02  9.0000E-02  9.0000E-02  9.0000E-02   0.000       0.000    
  59   8.0000E-02  8.0000E-02  8.0000E-02  8.0000E-02  8.0000E-02  8.0000E-02  8.0000E-02  8.0000E-02  8.0000E-02  8.0000E-02
       8.0000E-02  8.0000E-02  8.0000E-02  8.0000E-02  8.0000E-02  8.0000E-02  8.0000E-02  8.0000E-02  8.0000E-02  8.0000E-02
       8.0000E-02  8.0000E-02  8.0000E-02  8.0000E-02  8.0000E-02  8.0000E-02  8.0000E-02  8.0000E-02  9.0000E-02  9.0000E-02
       9.0000E-02  9.0000E-02  0.1500      0.1500      0.1500      0.1500      0.1500      0.1500      0.1500      9.0000E-02
       8.0000E-02  8.0000E-02  8.0000E-02  8.0000E-02  8.0000E-02  8.0000E-02  8.0000E-02  8.0000E-02  0.1500      8.0000E-02
       0.1500      9.0000E-02  8.0000E-02  8.0000E-02  8.0000E-02  8.0000E-02  8.0000E-02  8.0000E-02  8.0000E-02  8.0000E-02
       9.0000E-02  9.0000E-02  9.0000E-02  8.0000E-02  8.0000E-02  8.0000E-02  8.0000E-02  8.0000E-02  9.0000E-02  0.1500    
       0.1500      0.1500      9.0000E-02  9.0000E-02  9.0000E-02  9.0000E-02  9.0000E-02  9.0000E-02   0.000    
  60    0.000      8.0000E-02  8.0000E-02  8.0000E-02  8.0000E-02  8.0000E-02  8.0000E-02  8.0000E-02  8.0000E-02  8.0000E-02
       8.0000E-02  8.0000E-02  8.0000E-02   0.000       0.000       0.000      8.0000E-02  8.0000E-02  8.0000E-02  8.0000E-02
       8.0000E-02  8.0000E-02  8.0000E-02  8.0000E-02  8.0000E-02  8.0000E-02  8.0000E-02  8.0000E-02  8.0000E-02  9.0000E-02
       9.0000E-02  9.0000E-02  9.0000E-02  0.1500      0.1500      0.1500      0.1500      0.1500      0.1500      9.0000E-02
       8.0000E-02  8.0000E-02  8.0000E-02  8.0000E-02  8.0000E-02  8.0000E-02  8.0000E-02  8.0000E-02  8.0000E-02  8.0000E-02
       0.1500      9.0000E-02  8.0000E-02  8.0000E-02  8.0000E-02  8.0000E-02  8.0000E-02  8.0000E-02  8.0000E-02  9.0000E-02
       9.0000E-02  9.0000E-02  8.0000E-02  8.0000E-02  8.0000E-02  8.0000E-02  8.0000E-02  8.0000E-02  9.0000E-02  0.1500    
       0.1500      9.0000E-02  9.0000E-02  9.0000E-02  9.0000E-02  9.0000E-02  9.0000E-02  9.0000E-02  9.0000E-02
  61    0.000       0.000      8.0000E-02  8.0000E-02  8.0000E-02  8.0000E-02  8.0000E-02  8.0000E-02  8.0000E-02  8.0000E-02
       8.0000E-02   0.000       0.000       0.000       0.000       0.000       0.000      8.0000E-02  8.0000E-02  8.0000E-02
       8.0000E-02  8.0000E-02  8.0000E-02  8.0000E-02  8.0000E-02  8.0000E-02  8.0000E-02  8.0000E-02  8.0000E-02  8.0000E-02
       9.0000E-02  9.0000E-02  9.0000E-02  0.1500      0.1500      0.1500      0.1500      0.1500      0.1500      9.0000E-02
       8.0000E-02  8.0000E-02  8.0000E-02  8.0000E-02  8.0000E-02  8.0000E-02  8.0000E-02  8.0000E-02  8.0000E-02  8.0000E-02
       0.1500      0.1500      8.0000E-02  8.0000E-02  8.0000E-02  8.0000E-02  8.0000E-02  8.0000E-02  8.0000E-02  8.0000E-02
       8.0000E-02  8.0000E-02  8.0000E-02  8.0000E-02  8.0000E-02  8.0000E-02  8.0000E-02  8.0000E-02  9.0000E-02  0.1500    
       0.1500      9.0000E-02  9.0000E-02  9.0000E-02  9.0000E-02  9.0000E-02  9.0000E-02  9.0000E-02  9.0000E-02
  62    0.000       0.000       0.000      8.0000E-02   0.000       0.000       0.000       0.000       0.000       0.000    
        0.000       0.000       0.000       0.000       0.000       0.000       0.000       0.000       0.000      8.0000E-02
       8.0000E-02  8.0000E-02  8.0000E-02  8.0000E-02  8.0000E-02  8.0000E-02  8.0000E-02  8.0000E-02  8.0000E-02  8.0000E-02
       9.0000E-02  9.0000E-02  9.0000E-02  0.1500      0.1500      0.1500      0.1500      0.1500      0.1500      9.0000E-02
       8.0000E-02  8.0000E-02  8.0000E-02  8.0000E-02  8.0000E-02  8.0000E-02  8.0000E-02  8.0000E-02  8.0000E-02  8.0000E-02
       8.0000E-02  8.0000E-02  0.1500      8.0000E-02  8.0000E-02  8.0000E-02  8.0000E-02  8.0000E-02  8.0000E-02  8.0000E-02
       8.0000E-02  8.0000E-02  8.0000E-02  8.0000E-02  8.0000E-02  8.0000E-02  8.0000E-02  8.0000E-02  9.0000E-02  0.1500    
       9.0000E-02  9.0000E-02  9.0000E-02  9.0000E-02  9.0000E-02  9.0000E-02  9.0000E-02  8.0000E-02  8.0000E-02
  63    0.000       0.000       0.000       0.000       0.000       0.000       0.000       0.000       0.000       0.000    
        0.000       0.000       0.000       0.000       0.000       0.000       0.000       0.000       0.000      8.0000E-02
       8.0000E-02  8.0000E-02  8.0000E-02  8.0000E-02  8.0000E-02  8.0000E-02  8.0000E-02  8.0000E-02  8.0000E-02  8.0000E-02
       8.0000E-02  9.0000E-02  9.0000E-02  0.1500      0.1500      0.1500      0.1500      0.1500      0.1500      9.0000E-02
       9.0000E-02  8.0000E-02  8.0000E-02  8.0000E-02  8.0000E-02  8.0000E-02  8.0000E-02  8.0000E-02  8.0000E-02  8.0000E-02
       8.0000E-02  8.0000E-02  0.1500      0.1500      8.0000E-02  8.0000E-02  8.0000E-02  8.0000E-02  8.0000E-02  8.0000E-02
       8.0000E-02  8.0000E-02  8.0000E-02  8.0000E-02  8.0000E-02  8.0000E-02  8.0000E-02  8.0000E-02  9.0000E-02  9.0000E-02
       9.0000E-02  9.0000E-02  9.0000E-02  9.0000E-02  9.0000E-02  9.0000E-02  9.0000E-02  8.0000E-02  8.0000E-02
  64    0.000       0.000       0.000       0.000       0.000       0.000       0.000       0.000       0.000       0.000    
        0.000       0.000       0.000       0.000       0.000       0.000       0.000       0.000       0.000       0.000    
        0.000       0.000       0.000       0.000      8.0000E-02  8.0000E-02  8.0000E-02  8.0000E-02  8.0000E-02  8.0000E-02
       8.0000E-02  8.0000E-02  9.0000E-02  9.0000E-02  0.1500      0.1500      0.1500      0.1500      0.1500      0.1500    
       8.0000E-02  8.0000E-02  8.0000E-02  8.0000E-02  8.0000E-02  8.0000E-02  8.0000E-02  8.0000E-02  8.0000E-02  8.0000E-02
       8.0000E-02  8.0000E-02  9.0000E-02  0.1500      8.0000E-02  8.0000E-02  8.0000E-02  8.0000E-02  8.0000E-02  8.0000E-02
       8.0000E-02  8.0000E-02  8.0000E-02  8.0000E-02  8.0000E-02  8.0000E-02  8.0000E-02  9.0000E-02  9.0000E-02  9.0000E-02
       9.0000E-02  9.0000E-02  9.0000E-02  9.0000E-02  9.0000E-02  9.0000E-02  8.0000E-02  8.0000E-02  8.0000E-02
  65    0.000       0.000       0.000       0.000       0.000       0.000       0.000       0.000       0.000       0.000    
        0.000       0.000       0.000       0.000       0.000       0.000       0.000       0.000       0.000       0.000    
        0.000       0.000       0.000       0.000       0.000       0.000       0.000       0.000       0.000       0.000    
        0.000       0.000       0.000      9.0000E-02  0.1500      0.1500      0.1500      0.1500      0.1500      0.1500    
       8.0000E-02  8.0000E-02  8.0000E-02  8.0000E-02  8.0000E-02   0.000       0.000       0.000       0.000      8.0000E-02
       8.0000E-02  8.0000E-02  9.0000E-02  9.0000E-02  8.0000E-02  8.0000E-02  8.0000E-02  8.0000E-02  8.0000E-02  8.0000E-02
       8.0000E-02  8.0000E-02  8.0000E-02  8.0000E-02  8.0000E-02  8.0000E-02  8.0000E-02  9.0000E-02  9.0000E-02  9.0000E-02
       9.0000E-02  9.0000E-02  9.0000E-02  9.0000E-02  9.0000E-02  9.0000E-02  9.0000E-02  8.0000E-02  8.0000E-02
  66    0.000       0.000       0.000       0.000       0.000       0.000       0.000       0.000       0.000       0.000    
        0.000       0.000       0.000       0.000       0.000       0.000       0.000       0.000       0.000       0.000    
        0.000       0.000       0.000       0.000       0.000       0.000       0.000       0.000       0.000       0.000    
        0.000       0.000       0.000       0.000       0.000      9.0000E-02  9.0000E-02   0.000       0.000       0.000    
        0.000       0.000       0.000       0.000       0.000       0.000       0.000       0.000       0.000       0.000    
       8.0000E-02  8.0000E-02  9.0000E-02  9.0000E-02  9.0000E-02  8.0000E-02  8.0000E-02  8.0000E-02  8.0000E-02  8.0000E-02
       8.0000E-02  8.0000E-02  8.0000E-02  8.0000E-02  8.0000E-02  8.0000E-02  8.0000E-02  8.0000E-02  9.0000E-02  9.0000E-02
       9.0000E-02  9.0000E-02  9.0000E-02  9.0000E-02  9.0000E-02  9.0000E-02  9.0000E-02  8.0000E-02  8.0000E-02
  67    0.000       0.000       0.000       0.000       0.000       0.000       0.000       0.000       0.000       0.000    
        0.000       0.000       0.000       0.000       0.000       0.000       0.000       0.000       0.000       0.000    
        0.000       0.000       0.000       0.000       0.000       0.000       0.000       0.000       0.000       0.000    
        0.000       0.000       0.000       0.000       0.000       0.000       0.000       0.000       0.000       0.000    
        0.000       0.000       0.000       0.000       0.000       0.000       0.000       0.000       0.000       0.000    
        0.000       0.000      8.0000E-02  9.0000E-02  8.0000E-02  8.0000E-02  8.0000E-02  8.0000E-02  8.0000E-02  8.0000E-02
       8.0000E-02  8.0000E-02  8.0000E-02  8.0000E-02  8.0000E-02  8.0000E-02  8.0000E-02  8.0000E-02  9.0000E-02  9.0000E-02
       9.0000E-02   0.000       0.000       0.000       0.000       0.000       0.000       0.000       0.000    
  68    0.000       0.000       0.000       0.000       0.000       0.000       0.000       0.000       0.000       0.000    
        0.000       0.000       0.000       0.000       0.000       0.000       0.000       0.000       0.000       0.000    
        0.000       0.000       0.000       0.000       0.000       0.000       0.000       0.000       0.000       0.000    
        0.000       0.000       0.000       0.000       0.000       0.000       0.000       0.000       0.000       0.000    
        0.000       0.000       0.000       0.000       0.000       0.000       0.000       0.000       0.000       0.000    
        0.000       0.000       0.000      8.0000E-02  8.0000E-02  8.0000E-02  8.0000E-02  8.0000E-02  8.0000E-02  8.0000E-02
       8.0000E-02  8.0000E-02  8.0000E-02  8.0000E-02  8.0000E-02  8.0000E-02  8.0000E-02  9.0000E-02   0.000       0.000    
        0.000       0.000       0.000       0.000       0.000       0.000       0.000       0.000       0.000    
  69    0.000       0.000       0.000       0.000       0.000       0.000       0.000       0.000       0.000       0.000    
        0.000       0.000       0.000       0.000       0.000       0.000       0.000       0.000       0.000       0.000    
        0.000       0.000       0.000       0.000       0.000       0.000       0.000       0.000       0.000       0.000    
        0.000       0.000       0.000       0.000       0.000       0.000       0.000       0.000       0.000       0.000    
        0.000       0.000       0.000       0.000       0.000       0.000       0.000       0.000       0.000       0.000    
        0.000       0.000       0.000       0.000       0.000       0.000       0.000       0.000       0.000       0.000    
       8.0000E-02  8.0000E-02  8.0000E-02  8.0000E-02  9.0000E-02  9.0000E-02  9.0000E-02   0.000       0.000       0.000    
        0.000       0.000       0.000       0.000       0.000       0.000       0.000       0.000       0.000    
  70    0.000       0.000       0.000       0.000       0.000       0.000       0.000       0.000       0.000       0.000    
        0.000       0.000       0.000       0.000       0.000       0.000       0.000       0.000       0.000       0.000    
        0.000       0.000       0.000       0.000       0.000       0.000       0.000       0.000       0.000       0.000    
        0.000       0.000       0.000       0.000       0.000       0.000       0.000       0.000       0.000       0.000    
        0.000       0.000       0.000       0.000       0.000       0.000       0.000       0.000       0.000       0.000    
        0.000       0.000       0.000       0.000       0.000       0.000       0.000       0.000       0.000       0.000    
        0.000      8.0000E-02  8.0000E-02  8.0000E-02  9.0000E-02  9.0000E-02   0.000       0.000       0.000       0.000    
        0.000       0.000       0.000       0.000       0.000       0.000       0.000       0.000       0.000    
  71    0.000       0.000       0.000       0.000       0.000       0.000       0.000       0.000       0.000       0.000    
        0.000       0.000       0.000       0.000       0.000       0.000       0.000       0.000       0.000       0.000    
        0.000       0.000       0.000       0.000       0.000       0.000       0.000       0.000       0.000       0.000    
        0.000       0.000       0.000       0.000       0.000       0.000       0.000       0.000       0.000       0.000    
        0.000       0.000       0.000       0.000       0.000       0.000       0.000       0.000       0.000       0.000    
        0.000       0.000       0.000       0.000       0.000       0.000       0.000       0.000       0.000       0.000    
        0.000       0.000      8.0000E-02  8.0000E-02   0.000       0.000       0.000       0.000       0.000       0.000    
        0.000       0.000       0.000       0.000       0.000       0.000       0.000       0.000       0.000    



              HYD. COND. ALONG ROWS FOR LAYER   2
 READING ON UNIT   12 WITH FORMAT: (FREE)              

            1           2           3           4           5           6           7           8           9          10
           11          12          13          14          15          16          17          18          19          20
           21          22          23          24          25          26          27          28          29          30
           31          32          33          34          35          36          37          38          39          40
           41          42          43          44          45          46          47          48          49          50
           51          52          53          54          55          56          57          58          59          60
           61          62          63          64          65          66          67          68          69          70
           71          72          73          74          75          76          77          78          79
 ........................................................................................................................
   1    0.000       0.000       0.000       0.000       0.000       0.000       0.000       0.000       0.000       0.000    
        0.000       0.000       0.000       0.000       0.000       0.000       0.000       0.000       0.000       0.000    
        0.000       0.000       0.000       0.000       0.000       0.000       0.000       0.000       0.000       0.000    
        0.000       0.000       0.000       0.000       0.000       0.000       0.000       0.000       0.000       0.000    
        0.000       0.000       0.000       0.000       0.000       0.000       0.000       0.000       0.000       0.000    
        0.000      4.5000E-04  4.5000E-04   0.000       0.000       0.000       0.000       0.000       0.000       0.000    
        0.000       0.000       0.000       0.000       0.000       0.000       0.000       0.000       0.000       0.000    
        0.000       0.000       0.000       0.000       0.000       0.000       0.000       0.000       0.000    
   2    0.000       0.000       0.000       0.000       0.000       0.000       0.000       0.000       0.000       0.000    
        0.000       0.000       0.000       0.000       0.000       0.000       0.000       0.000       0.000       0.000    
        0.000       0.000       0.000       0.000       0.000       0.000       0.000       0.000       0.000       0.000    
        0.000       0.000       0.000       0.000       0.000       0.000       0.000       0.000       0.000       0.000    
        0.000       0.000       0.000       0.000       0.000       0.000       0.000       0.000       0.000       0.000    
        0.000      4.5000E-04  2.7000E-03  2.7000E-03   0.000       0.000       0.000       0.000       0.000       0.000    
        0.000       0.000       0.000       0.000       0.000       0.000       0.000       0.000       0.000       0.000    
        0.000       0.000       0.000       0.000       0.000       0.000       0.000       0.000       0.000    
   3    0.000       0.000       0.000       0.000       0.000       0.000       0.000       0.000       0.000       0.000    
        0.000       0.000       0.000       0.000       0.000       0.000       0.000       0.000       0.000       0.000    
        0.000       0.000       0.000       0.000       0.000       0.000       0.000       0.000       0.000       0.000    
        0.000       0.000       0.000       0.000       0.000       0.000       0.000       0.000       0.000       0.000    
        0.000       0.000       0.000       0.000       0.000       0.000       0.000       0.000       0.000       0.000    
        0.000      4.5000E-04  2.7000E-03  9.0000E-03   0.000       0.000       0.000       0.000       0.000       0.000    
        0.000       0.000       0.000       0.000       0.000       0.000       0.000       0.000       0.000       0.000    
        0.000       0.000       0.000       0.000       0.000       0.000       0.000       0.000       0.000    
   4    0.000       0.000       0.000       0.000       0.000       0.000       0.000       0.000       0.000       0.000    
        0.000       0.000       0.000       0.000       0.000       0.000       0.000       0.000       0.000       0.000    
        0.000       0.000       0.000       0.000       0.000       0.000       0.000       0.000       0.000       0.000    
        0.000       0.000       0.000       0.000       0.000       0.000       0.000       0.000       0.000       0.000    
        0.000       0.000       0.000       0.000       0.000       0.000       0.000       0.000       0.000       0.000    
        0.000      2.7000E-03  2.7000E-03  9.0000E-03  9.0000E-03   0.000       0.000       0.000       0.000       0.000    
        0.000       0.000       0.000       0.000       0.000       0.000       0.000       0.000       0.000       0.000    
        0.000       0.000       0.000       0.000       0.000       0.000       0.000       0.000       0.000    
   5    0.000       0.000       0.000       0.000       0.000       0.000       0.000       0.000       0.000       0.000    
        0.000       0.000       0.000       0.000       0.000       0.000       0.000       0.000       0.000       0.000    
        0.000       0.000       0.000       0.000       0.000       0.000       0.000       0.000       0.000       0.000    
        0.000       0.000       0.000       0.000       0.000       0.000       0.000       0.000       0.000       0.000    
        0.000       0.000       0.000       0.000       0.000       0.000       0.000       0.000       0.000       0.000    
        0.000      2.7000E-03  2.7000E-03  2.7000E-03  9.0000E-03  2.7000E-03  2.7000E-03   0.000       0.000       0.000    
        0.000       0.000       0.000       0.000       0.000       0.000       0.000       0.000       0.000       0.000    
        0.000       0.000       0.000       0.000       0.000       0.000       0.000       0.000       0.000    
   6    0.000       0.000       0.000       0.000       0.000       0.000       0.000       0.000       0.000       0.000    
        0.000       0.000       0.000       0.000       0.000       0.000       0.000       0.000       0.000       0.000    
        0.000       0.000       0.000       0.000       0.000       0.000       0.000       0.000       0.000       0.000    
        0.000       0.000       0.000       0.000       0.000       0.000       0.000       0.000       0.000       0.000    
        0.000       0.000       0.000       0.000       0.000       0.000       0.000       0.000       0.000       0.000    
        0.000      2.7000E-03  2.7000E-03  2.7000E-03  9.0000E-03  9.0000E-03  2.7000E-03  2.7000E-03  2.7000E-03   0.000    
        0.000       0.000       0.000      2.7000E-03  2.7000E-03   0.000       0.000       0.000       0.000       0.000    
        0.000       0.000       0.000       0.000       0.000       0.000       0.000       0.000       0.000    
   7    0.000       0.000       0.000       0.000       0.000       0.000       0.000       0.000       0.000       0.000    
        0.000       0.000       0.000       0.000       0.000       0.000       0.000       0.000       0.000       0.000    
        0.000       0.000       0.000       0.000       0.000       0.000       0.000       0.000       0.000       0.000    
        0.000       0.000       0.000       0.000       0.000       0.000       0.000       0.000       0.000       0.000    
        0.000       0.000       0.000       0.000       0.000       0.000       0.000       0.000       0.000       0.000    
        0.000      2.7000E-03  2.7000E-03  2.7000E-03  9.0000E-03  9.0000E-03  9.0000E-03  2.7000E-03  2.7000E-03  2.7000E-03
       2.7000E-03  2.7000E-03  2.7000E-03  2.7000E-03  2.7000E-03  2.7000E-03   0.000       0.000       0.000       0.000    
        0.000       0.000       0.000       0.000       0.000       0.000       0.000       0.000       0.000    
   8    0.000       0.000       0.000       0.000       0.000       0.000       0.000       0.000       0.000       0.000    
        0.000       0.000       0.000       0.000       0.000       0.000       0.000       0.000       0.000       0.000    
        0.000       0.000       0.000       0.000       0.000       0.000       0.000       0.000       0.000       0.000    
        0.000       0.000       0.000       0.000       0.000       0.000       0.000       0.000       0.000       0.000    
        0.000       0.000       0.000       0.000       0.000       0.000       0.000       0.000       0.000       0.000    
        0.000      2.7000E-03  2.7000E-03  2.7000E-03  9.0000E-03  9.0000E-03  9.0000E-03  2.7000E-03  2.7000E-03  2.7000E-03
       2.7000E-03  2.7000E-03  2.7000E-03  2.7000E-03  2.7000E-03  2.7000E-03  2.7000E-03  2.7000E-03   0.000       0.000    
        0.000       0.000       0.000       0.000       0.000       0.000       0.000       0.000       0.000    
   9    0.000       0.000       0.000       0.000       0.000       0.000       0.000       0.000       0.000       0.000    
        0.000       0.000       0.000       0.000       0.000       0.000       0.000       0.000       0.000       0.000    
        0.000       0.000       0.000       0.000       0.000       0.000       0.000       0.000       0.000       0.000    
        0.000       0.000       0.000       0.000       0.000       0.000       0.000       0.000       0.000       0.000    
        0.000       0.000       0.000       0.000       0.000       0.000       0.000       0.000       0.000       0.000    
       9.0000E-04  2.7000E-03  2.7000E-03  2.7000E-03  9.0000E-03  9.0000E-03  9.0000E-03  2.7000E-03  2.7000E-03  2.7000E-03
       2.7000E-03  2.7000E-03  2.7000E-03  2.7000E-03  2.7000E-03  2.7000E-03  2.7000E-03  2.7000E-03  2.7000E-03   0.000    
        0.000       0.000       0.000       0.000       0.000       0.000       0.000       0.000       0.000    
  10    0.000       0.000       0.000       0.000       0.000       0.000       0.000       0.000       0.000       0.000    
        0.000       0.000       0.000       0.000       0.000       0.000       0.000       0.000       0.000       0.000    
        0.000       0.000       0.000       0.000       0.000       0.000       0.000       0.000       0.000       0.000    
        0.000       0.000       0.000       0.000       0.000       0.000       0.000       0.000       0.000       0.000    
        0.000       0.000       0.000       0.000       0.000       0.000       0.000       0.000       0.000      2.7000E-03
       2.7000E-03  2.7000E-03  2.7000E-03  2.7000E-03  2.7000E-03  9.0000E-03  9.0000E-03  9.0000E-03  2.7000E-03  2.7000E-03
       2.7000E-03  2.7000E-03  2.7000E-03  2.7000E-03  2.7000E-03  2.7000E-03  2.7000E-03  2.7000E-03  2.7000E-03  2.7000E-03
        0.000       0.000       0.000       0.000       0.000       0.000       0.000       0.000       0.000    
  11    0.000       0.000       0.000       0.000       0.000       0.000       0.000       0.000       0.000       0.000    
        0.000       0.000       0.000       0.000       0.000       0.000       0.000       0.000       0.000       0.000    
        0.000       0.000       0.000       0.000       0.000       0.000       0.000       0.000       0.000       0.000    
        0.000       0.000       0.000       0.000       0.000       0.000       0.000       0.000       0.000       0.000    
        0.000       0.000       0.000       0.000       0.000       0.000       0.000       0.000      2.7000E-03  2.7000E-03
       2.7000E-03  2.7000E-03  2.7000E-03  2.7000E-03  2.7000E-03  9.0000E-03  9.0000E-03  9.0000E-03  2.7000E-03  2.7000E-03
       2.7000E-03  2.7000E-03  2.7000E-03  2.7000E-03  2.7000E-03  2.7000E-03  2.7000E-03  2.7000E-03  2.7000E-03  2.7000E-03
       2.7000E-03   0.000       0.000       0.000       0.000       0.000       0.000       0.000       0.000    
  12    0.000       0.000       0.000       0.000       0.000       0.000       0.000       0.000       0.000       0.000    
        0.000       0.000       0.000       0.000       0.000       0.000       0.000       0.000       0.000       0.000    
        0.000       0.000       0.000       0.000       0.000       0.000       0.000       0.000       0.000       0.000    
        0.000       0.000       0.000       0.000       0.000       0.000       0.000       0.000       0.000       0.000    
        0.000      9.0000E-04  9.0000E-04   0.000       0.000       0.000       0.000      9.0000E-04  2.7000E-03  2.7000E-03
       2.7000E-03  2.7000E-03  2.7000E-03  2.7000E-03  2.7000E-03  9.0000E-03  9.0000E-03  9.0000E-03  2.7000E-03  2.7000E-03
       2.7000E-03  2.7000E-03  2.7000E-03  2.7000E-03  2.7000E-03  2.7000E-03  2.7000E-03  2.7000E-03  2.7000E-03  2.7000E-03
       2.7000E-03   0.000       0.000       0.000       0.000       0.000       0.000       0.000       0.000    
  13    0.000       0.000       0.000       0.000       0.000       0.000       0.000       0.000       0.000       0.000    
        0.000       0.000       0.000       0.000       0.000       0.000       0.000       0.000       0.000       0.000    
        0.000       0.000       0.000       0.000       0.000       0.000       0.000       0.000       0.000       0.000    
        0.000       0.000       0.000       0.000       0.000       0.000       0.000       0.000      9.0000E-04  9.0000E-04
       9.0000E-04  9.0000E-04  9.0000E-04  9.0000E-04  9.0000E-04  9.0000E-04  9.0000E-04  9.0000E-04  2.7000E-03  2.7000E-03
       2.7000E-03  2.7000E-03  2.7000E-03  2.7000E-03  2.7000E-03  9.0000E-03  9.0000E-03  9.0000E-03  2.7000E-03  2.7000E-03
       2.7000E-03  2.7000E-03  2.7000E-03  2.7000E-03  2.7000E-03  2.7000E-03  2.7000E-03  2.7000E-03  2.7000E-03  2.7000E-03
       2.7000E-03  2.7000E-03   0.000       0.000       0.000       0.000       0.000       0.000       0.000    
  14    0.000       0.000       0.000       0.000       0.000       0.000       0.000       0.000       0.000       0.000    
        0.000       0.000       0.000       0.000       0.000       0.000       0.000       0.000       0.000       0.000    
        0.000       0.000       0.000       0.000       0.000       0.000       0.000       0.000       0.000       0.000    
        0.000       0.000       0.000       0.000       0.000       0.000       0.000       0.000      9.0000E-04  9.0000E-04
       9.0000E-04  9.0000E-04  9.0000E-04  9.0000E-04  2.7000E-03  2.7000E-03  2.7000E-03  2.7000E-03  2.7000E-03  2.7000E-03
       2.7000E-03  2.7000E-03  2.7000E-03  2.7000E-03  2.7000E-03  9.0000E-03  9.0000E-03  9.0000E-03  9.0000E-03  9.0000E-03
       2.7000E-03  2.7000E-03  2.7000E-03  2.7000E-03  2.7000E-03  2.7000E-03  2.7000E-03  9.0000E-03  2.7000E-03  2.7000E-03
       2.7000E-03  2.7000E-03  2.7000E-03   0.000       0.000       0.000       0.000       0.000       0.000    
  15    0.000       0.000       0.000       0.000       0.000       0.000       0.000       0.000       0.000       0.000    
        0.000       0.000       0.000       0.000       0.000       0.000       0.000       0.000       0.000       0.000    
        0.000       0.000       0.000       0.000       0.000       0.000       0.000       0.000       0.000       0.000    
        0.000       0.000       0.000       0.000       0.000       0.000       0.000      9.0000E-04  9.0000E-04  9.0000E-04
       2.7000E-03  2.7000E-03  2.7000E-03  2.7000E-03  2.7000E-03  2.7000E-03  2.7000E-03  2.7000E-03  2.7000E-03  2.7000E-03
       2.7000E-03  2.7000E-03  2.7000E-03  2.7000E-03  2.7000E-03  2.7000E-03  9.0000E-03  9.0000E-03  9.0000E-03  9.0000E-03
       9.0000E-03  2.7000E-03  2.7000E-03  9.0000E-03  9.0000E-03  9.0000E-03  9.0000E-03  9.0000E-03  9.0000E-03  2.7000E-03
       2.7000E-03  2.7000E-03  2.7000E-03   0.000       0.000       0.000       0.000       0.000       0.000    
  16    0.000       0.000       0.000       0.000       0.000       0.000       0.000       0.000       0.000       0.000    
        0.000       0.000       0.000       0.000       0.000       0.000       0.000       0.000       0.000       0.000    
        0.000       0.000       0.000       0.000       0.000       0.000       0.000       0.000       0.000       0.000    
        0.000       0.000       0.000       0.000       0.000       0.000      9.0000E-04  9.0000E-04  9.0000E-04  9.0000E-04
       9.0000E-04  2.7000E-03  2.7000E-03  2.7000E-03  2.7000E-03  2.7000E-03  2.7000E-03  2.7000E-03  2.7000E-03  2.7000E-03
       2.7000E-03  2.7000E-03  2.7000E-03  2.7000E-03  2.7000E-03  2.7000E-03  9.0000E-03  9.0000E-03  9.0000E-03  9.0000E-03
       9.0000E-03  9.0000E-03  9.0000E-03  9.0000E-03  9.0000E-03  9.0000E-03  9.0000E-03  9.0000E-03  9.0000E-03  2.7000E-03
       2.7000E-03  2.7000E-03  2.7000E-03  2.7000E-03   0.000       0.000       0.000       0.000       0.000    
  17    0.000       0.000       0.000       0.000       0.000       0.000       0.000       0.000       0.000       0.000    
        0.000       0.000       0.000       0.000       0.000       0.000       0.000       0.000       0.000       0.000    
        0.000       0.000       0.000       0.000       0.000       0.000       0.000       0.000       0.000       0.000    
        0.000       0.000       0.000       0.000       0.000      9.0000E-04  9.0000E-04  9.0000E-04  9.0000E-04  9.0000E-04
       9.0000E-04  2.7000E-03  2.7000E-03  2.7000E-03  2.7000E-03  2.7000E-03  2.7000E-03  2.7000E-03  2.7000E-03  2.7000E-03
       2.7000E-03  2.7000E-03  2.7000E-03  2.7000E-03  2.7000E-03  2.7000E-03  9.0000E-03  9.0000E-03  9.0000E-03  9.0000E-03
       9.0000E-03  9.0000E-03  9.0000E-03  9.0000E-03  9.0000E-03  9.0000E-03  9.0000E-03  9.0000E-03  9.0000E-03  2.7000E-03
       2.7000E-03  2.7000E-03  2.7000E-03  2.7000E-03   0.000       0.000       0.000       0.000       0.000    
  18    0.000       0.000       0.000       0.000       0.000       0.000       0.000       0.000       0.000       0.000    
        0.000       0.000       0.000       0.000       0.000       0.000       0.000       0.000       0.000       0.000    
        0.000       0.000       0.000       0.000       0.000       0.000       0.000       0.000       0.000       0.000    
        0.000       0.000       0.000       0.000      9.0000E-04  9.0000E-04  9.0000E-04  9.0000E-04  9.0000E-04  9.0000E-04
       9.0000E-04  9.0000E-04  9.0000E-04  2.7000E-03  2.7000E-03  2.7000E-03  2.7000E-03  2.7000E-03  2.7000E-03  2.7000E-03
       2.7000E-03  2.7000E-03  2.7000E-03  2.7000E-03  2.7000E-03  2.7000E-03  9.0000E-03  9.0000E-03  9.0000E-03  9.0000E-03
       9.0000E-03  9.0000E-03  9.0000E-03  9.0000E-03  9.0000E-03  9.0000E-03  9.0000E-03  9.0000E-03  9.0000E-03  9.0000E-03
       2.7000E-03  2.7000E-03  2.7000E-03  2.7000E-03   0.000       0.000       0.000       0.000       0.000    
  19    0.000       0.000       0.000       0.000       0.000       0.000       0.000       0.000       0.000       0.000    
        0.000       0.000       0.000       0.000       0.000       0.000       0.000       0.000       0.000       0.000    
        0.000       0.000       0.000       0.000       0.000       0.000       0.000       0.000       0.000       0.000    
        0.000       0.000       0.000      9.0000E-04  9.0000E-04  9.0000E-04  9.0000E-04  9.0000E-04  9.0000E-04  9.0000E-04
       9.0000E-04  9.0000E-04  9.0000E-04  9.0000E-04  2.7000E-03  2.7000E-03  2.7000E-03  2.7000E-03  2.7000E-03  2.7000E-03
       2.7000E-03  2.7000E-03  2.7000E-03  2.7000E-03  2.7000E-03  2.7000E-03  2.7000E-03  9.0000E-03  9.0000E-03  9.0000E-03
       9.0000E-03  9.0000E-03  9.0000E-03  9.0000E-03  9.0000E-03  9.0000E-03  9.0000E-03  9.0000E-03  9.0000E-03  9.0000E-03
       2.7000E-03  2.7000E-03  2.7000E-03  2.7000E-03   0.000       0.000       0.000       0.000       0.000    
  20    0.000       0.000       0.000       0.000       0.000       0.000       0.000       0.000       0.000       0.000    
        0.000       0.000       0.000       0.000       0.000       0.000       0.000       0.000       0.000       0.000    
        0.000       0.000       0.000       0.000       0.000       0.000       0.000       0.000       0.000       0.000    
        0.000       0.000       0.000      4.5000E-04  9.0000E-04  9.0000E-04  9.0000E-04  9.0000E-04  9.0000E-04  9.0000E-04
       9.0000E-04  9.0000E-04  9.0000E-04  9.0000E-04  2.7000E-03  2.7000E-03  2.7000E-03  2.7000E-03  2.7000E-03  2.7000E-03
       2.7000E-03  2.7000E-03  2.7000E-03  2.7000E-03  2.7000E-03  2.7000E-03  2.7000E-03  9.0000E-03  9.0000E-03  9.0000E-03
       9.0000E-03  9.0000E-03  9.0000E-03  9.0000E-03  9.0000E-03  9.0000E-03  9.0000E-03  9.0000E-03  9.0000E-03  9.0000E-03
       2.7000E-03  2.7000E-03  2.7000E-03  2.7000E-03   0.000       0.000       0.000       0.000       0.000    
  21    0.000       0.000       0.000       0.000       0.000       0.000       0.000       0.000       0.000       0.000    
        0.000       0.000       0.000       0.000       0.000       0.000       0.000       0.000       0.000       0.000    
        0.000       0.000       0.000       0.000       0.000       0.000       0.000       0.000       0.000       0.000    
        0.000       0.000      4.5000E-04  4.5000E-04  9.0000E-04  4.5000E-04  9.0000E-04  9.0000E-04  9.0000E-04  9.0000E-04
       9.0000E-04  9.0000E-04  9.0000E-04  9.0000E-04  9.0000E-04  2.7000E-03  2.7000E-03  2.7000E-03  2.7000E-03  2.7000E-03
       2.7000E-03  2.7000E-03  2.7000E-03  2.7000E-03  2.7000E-03  2.7000E-03  2.7000E-03  2.7000E-03  9.0000E-03  9.0000E-03
       9.0000E-03  9.0000E-03  9.0000E-03  9.0000E-03  9.0000E-03  9.0000E-03  9.0000E-03  9.0000E-03  9.0000E-03  2.7000E-03
       2.7000E-03  2.7000E-03  2.7000E-03  2.7000E-03  2.7000E-03   0.000       0.000       0.000       0.000    
  22    0.000       0.000       0.000       0.000       0.000       0.000       0.000       0.000       0.000       0.000    
        0.000       0.000       0.000       0.000       0.000       0.000       0.000       0.000       0.000       0.000    
        0.000       0.000       0.000       0.000       0.000       0.000       0.000       0.000       0.000       0.000    
        0.000       0.000      4.5000E-04  4.5000E-04  4.5000E-04  4.5000E-04  9.0000E-04  9.0000E-04  9.0000E-04  9.0000E-04
       9.0000E-04  9.0000E-04  9.0000E-04  9.0000E-04  9.0000E-04  2.7000E-03  2.7000E-03  2.7000E-03  2.7000E-03  2.7000E-03
       2.7000E-03  2.7000E-03  2.7000E-03  2.7000E-03  2.7000E-03  2.7000E-03  2.7000E-03  2.7000E-03  2.7000E-03  2.7000E-03
       2.7000E-03  9.0000E-03  9.0000E-03  9.0000E-03  9.0000E-03  9.0000E-03  9.0000E-03  9.0000E-03  9.0000E-03  2.7000E-03
       2.7000E-03  2.7000E-03  2.7000E-03  2.7000E-03   0.000       0.000       0.000       0.000       0.000    
  23    0.000       0.000       0.000       0.000       0.000       0.000       0.000       0.000       0.000       0.000    
        0.000       0.000       0.000       0.000       0.000       0.000       0.000       0.000       0.000       0.000    
        0.000       0.000       0.000       0.000       0.000       0.000       0.000       0.000       0.000       0.000    
        0.000      4.5000E-04  4.5000E-04  4.5000E-04  4.5000E-04  9.0000E-04  9.0000E-04  9.0000E-04  9.0000E-04  9.0000E-04
       9.0000E-04  9.0000E-04  9.0000E-04  9.0000E-04  9.0000E-04  2.7000E-03  2.7000E-03  9.0000E-03  2.7000E-03  2.7000E-03
       2.7000E-03  2.7000E-03  2.7000E-03  2.7000E-03  2.7000E-03  2.7000E-03  2.7000E-03  2.7000E-03  2.7000E-03  2.7000E-03
       2.7000E-03  2.7000E-03  9.0000E-03  9.0000E-03  9.0000E-03  9.0000E-03  9.0000E-03  9.0000E-03  9.0000E-03  2.7000E-03
       2.7000E-03   0.000       0.000       0.000       0.000       0.000       0.000       0.000       0.000    
  24    0.000       0.000       0.000       0.000       0.000       0.000       0.000       0.000       0.000       0.000    
        0.000       0.000       0.000       0.000       0.000       0.000       0.000       0.000       0.000       0.000    
        0.000       0.000       0.000       0.000       0.000       0.000       0.000       0.000      4.5000E-04  4.5000E-04
       4.5000E-04  4.5000E-04  4.5000E-04  4.5000E-04  4.5000E-04  9.0000E-04  9.0000E-04  9.0000E-04  9.0000E-04  9.0000E-04
       9.0000E-04  9.0000E-04  9.0000E-04  9.0000E-04  9.0000E-04  2.7000E-03  2.7000E-03  9.0000E-03  9.0000E-03  2.7000E-03
       2.7000E-03  2.7000E-03  2.7000E-03  2.7000E-03  2.7000E-03  2.7000E-03  2.7000E-03  2.7000E-03  2.7000E-03  2.7000E-03
       2.7000E-03  2.7000E-03  2.7000E-03  9.0000E-03  9.0000E-03  9.0000E-03  9.0000E-03  9.0000E-03  9.0000E-03  2.7000E-03
       2.7000E-03   0.000       0.000       0.000       0.000       0.000       0.000       0.000       0.000    
  25    0.000       0.000       0.000       0.000       0.000       0.000       0.000       0.000       0.000       0.000    
        0.000       0.000       0.000       0.000       0.000       0.000       0.000       0.000       0.000       0.000    
        0.000       0.000       0.000       0.000       0.000       0.000       0.000      4.5000E-04  4.5000E-04  4.5000E-04
       4.5000E-04  4.5000E-04  4.5000E-04  4.5000E-04  9.0000E-04  9.0000E-04  9.0000E-04  9.0000E-04  9.0000E-04  9.0000E-04
       9.0000E-04  9.0000E-04  9.0000E-04  9.0000E-04  2.7000E-03  2.7000E-03  2.7000E-03  9.0000E-03  9.0000E-03  2.7000E-03
       2.7000E-03  2.7000E-03  2.7000E-03  2.7000E-03  2.7000E-03  2.7000E-03  2.7000E-03  2.7000E-03  2.7000E-03  2.7000E-03
       2.7000E-03  2.7000E-03  2.7000E-03  2.7000E-03  2.7000E-03  9.0000E-03  9.0000E-03  9.0000E-03  9.0000E-03  2.7000E-03
       2.7000E-03   0.000       0.000       0.000       0.000       0.000       0.000       0.000       0.000    
  26    0.000       0.000       0.000       0.000       0.000       0.000       0.000       0.000       0.000       0.000    
        0.000       0.000       0.000       0.000       0.000       0.000       0.000       0.000       0.000       0.000    
        0.000       0.000       0.000       0.000       0.000      4.5000E-04  4.5000E-04  4.5000E-04  4.5000E-04  4.5000E-04
       4.5000E-04  4.5000E-04  4.5000E-04  9.0000E-04  9.0000E-04  9.0000E-04  9.0000E-04  9.0000E-04  9.0000E-04  9.0000E-04
       9.0000E-04  9.0000E-04  2.7000E-03  2.7000E-03  2.7000E-03  2.7000E-03  2.7000E-03  2.7000E-03  9.0000E-03  9.0000E-03
       9.0000E-03  2.7000E-03  2.7000E-03  2.7000E-03  2.7000E-03  2.7000E-03  2.7000E-03  2.7000E-03  2.7000E-03  2.7000E-03
       2.7000E-03  2.7000E-03  2.7000E-03  2.7000E-03  2.7000E-03  9.0000E-03  9.0000E-03  9.0000E-03  9.0000E-03  2.7000E-03
       2.7000E-03   0.000       0.000       0.000       0.000       0.000       0.000       0.000       0.000    
  27    0.000       0.000       0.000       0.000       0.000       0.000       0.000       0.000       0.000       0.000    
        0.000       0.000       0.000       0.000       0.000       0.000       0.000       0.000       0.000       0.000    
        0.000       0.000       0.000       0.000      4.5000E-04  4.5000E-04  4.5000E-04  4.5000E-04  4.5000E-04  4.5000E-04
       4.5000E-04  4.5000E-04  9.0000E-04  9.0000E-04  9.0000E-04  9.0000E-04  9.0000E-04  9.0000E-04  9.0000E-04  9.0000E-04
       9.0000E-04  2.7000E-03  2.7000E-03  2.7000E-03  2.7000E-03  2.7000E-03  2.7000E-03  2.7000E-03  2.7000E-03  9.0000E-03
       9.0000E-03  2.7000E-03  2.7000E-03  2.7000E-03  2.7000E-03  2.7000E-03  2.7000E-03  2.7000E-03  2.7000E-03  2.7000E-03
       2.7000E-03  2.7000E-03  2.7000E-03  2.7000E-03  2.7000E-03  9.0000E-03  9.0000E-03  9.0000E-03  9.0000E-03  9.0000E-03
       2.7000E-03   0.000       0.000       0.000       0.000       0.000       0.000       0.000       0.000    
  28    0.000       0.000       0.000       0.000       0.000       0.000       0.000       0.000       0.000       0.000    
        0.000       0.000       0.000       0.000       0.000       0.000       0.000       0.000       0.000       0.000    
        0.000       0.000       0.000      4.5000E-04  4.5000E-04  4.5000E-04  4.5000E-04  4.5000E-04  4.5000E-04  4.5000E-04
       4.5000E-04  9.0000E-04  9.0000E-04  9.0000E-04  9.0000E-04  9.0000E-04  9.0000E-04  9.0000E-04  2.7000E-03  2.7000E-03
       2.7000E-03  2.7000E-03  2.7000E-03  2.7000E-03  2.7000E-03  2.7000E-03  2.7000E-03  2.7000E-03  2.7000E-03  2.7000E-03
       9.0000E-03  9.0000E-03  2.7000E-03  2.7000E-03  2.7000E-03  2.7000E-03  2.7000E-03  2.7000E-03  2.7000E-03  2.7000E-03
       2.7000E-03  2.7000E-03  2.7000E-03  2.7000E-03  2.7000E-03  2.7000E-03  9.0000E-03  9.0000E-03  2.7000E-02  9.0000E-03
       2.7000E-03  2.7000E-03   0.000       0.000       0.000       0.000       0.000       0.000       0.000    
  29    0.000       0.000       0.000       0.000       0.000       0.000       0.000       0.000       0.000       0.000    
        0.000       0.000       0.000       0.000       0.000       0.000       0.000       0.000       0.000       0.000    
        0.000      4.5000E-04  4.5000E-04  4.5000E-04  4.5000E-04  4.5000E-04  4.5000E-04  4.5000E-04  4.5000E-04  9.0000E-04
       9.0000E-04  9.0000E-04  9.0000E-04  9.0000E-04  9.0000E-04  9.0000E-04  9.0000E-04  2.7000E-03  2.7000E-03  2.7000E-03
       2.7000E-03  2.7000E-03  2.7000E-03  2.7000E-03  2.7000E-03  2.7000E-03  2.7000E-03  2.7000E-03  2.7000E-03  2.7000E-03
       9.0000E-03  9.0000E-03  2.7000E-03  2.7000E-03  2.7000E-03  2.7000E-03  2.7000E-03  2.7000E-03  2.7000E-03  2.7000E-03
       2.7000E-03  2.7000E-03  2.7000E-03  2.7000E-03  2.7000E-03  2.7000E-03  9.0000E-03  9.0000E-03  2.7000E-02  9.0000E-03
       2.7000E-03  2.7000E-03   0.000       0.000       0.000       0.000       0.000       0.000       0.000    
  30    0.000       0.000       0.000       0.000       0.000       0.000       0.000       0.000       0.000       0.000    
        0.000       0.000       0.000       0.000       0.000       0.000       0.000       0.000       0.000      4.5000E-04
       4.5000E-04  4.5000E-04  4.5000E-04  4.5000E-04  4.5000E-04  4.5000E-04  4.5000E-04  9.0000E-04  9.0000E-04  9.0000E-04
       9.0000E-04  9.0000E-04  9.0000E-04  9.0000E-04  9.0000E-04  9.0000E-04  9.0000E-04  2.7000E-03  2.7000E-03  2.7000E-03
       2.7000E-03  2.7000E-03  2.7000E-03  2.7000E-03  2.7000E-03  2.7000E-03  2.7000E-03  2.7000E-03  2.7000E-03  2.7000E-03
       9.0000E-03  9.0000E-03  2.7000E-03  2.7000E-03  2.7000E-03  2.7000E-03  2.7000E-03  2.7000E-03  2.7000E-03  2.7000E-03
       2.7000E-03  2.7000E-03  2.7000E-03  2.7000E-03  2.7000E-03  2.7000E-03  9.0000E-03  9.0000E-03  2.7000E-02  9.0000E-03
       2.7000E-03  2.7000E-03   0.000       0.000       0.000       0.000       0.000       0.000       0.000    
  31    0.000       0.000       0.000       0.000       0.000       0.000       0.000       0.000       0.000       0.000    
        0.000       0.000       0.000       0.000       0.000       0.000       0.000       0.000      4.5000E-04  4.5000E-04
       4.5000E-04  4.5000E-04  4.5000E-04  9.0000E-04  9.0000E-04  9.0000E-04  9.0000E-04  9.0000E-04  9.0000E-04  9.0000E-04
       9.0000E-04  9.0000E-04  9.0000E-04  9.0000E-04  9.0000E-04  9.0000E-04  2.7000E-03  2.7000E-03  2.7000E-03  2.7000E-03
       2.7000E-03  2.7000E-03  2.7000E-03  9.0000E-03  2.7000E-03  2.7000E-03  2.7000E-03  2.7000E-03  2.7000E-03  2.7000E-03
       9.0000E-03  9.0000E-03  2.7000E-03  2.7000E-03  2.7000E-03  2.7000E-03  2.7000E-03  2.7000E-03  2.7000E-03  2.7000E-03
       2.7000E-03  2.7000E-03  2.7000E-03  2.7000E-03  2.7000E-03  2.7000E-03  9.0000E-03  9.0000E-03  2.7000E-02  2.7000E-02
       2.7000E-03  2.7000E-03   0.000       0.000       0.000       0.000       0.000       0.000       0.000    
  32    0.000       0.000       0.000       0.000       0.000       0.000       0.000       0.000       0.000       0.000    
        0.000       0.000       0.000       0.000       0.000       0.000      4.5000E-04  4.5000E-04  4.5000E-04  4.5000E-04
       4.5000E-04  4.5000E-04  9.0000E-04  9.0000E-04  9.0000E-04  9.0000E-04  9.0000E-04  9.0000E-04  9.0000E-04  9.0000E-04
       9.0000E-04  9.0000E-04  9.0000E-04  9.0000E-04  9.0000E-04  9.0000E-04  2.7000E-03  2.7000E-03  2.7000E-02  2.7000E-02
       2.7000E-02  2.7000E-02  2.7000E-02  2.7000E-02  2.7000E-03  2.7000E-03  2.7000E-03  2.7000E-03  2.7000E-03  2.7000E-03
       9.0000E-03  9.0000E-03  9.0000E-03  2.7000E-03  2.7000E-03  2.7000E-03  2.7000E-03  2.7000E-03  2.7000E-03  2.7000E-03
       2.7000E-03  2.7000E-03  2.7000E-03  2.7000E-03  2.7000E-03  2.7000E-03  2.7000E-03  9.0000E-03  9.0000E-03  2.7000E-02
       9.0000E-03  2.7000E-03   0.000       0.000       0.000       0.000       0.000       0.000       0.000    
  33    0.000       0.000       0.000       0.000       0.000       0.000       0.000       0.000       0.000       0.000    
        0.000       0.000       0.000       0.000       0.000      4.5000E-04  4.5000E-04  4.5000E-04  4.5000E-04  4.5000E-04
       4.5000E-04  4.5000E-04  9.0000E-04  9.0000E-04  9.0000E-04  9.0000E-04  9.0000E-04  9.0000E-04  9.0000E-04  9.0000E-04
       9.0000E-04  9.0000E-04  9.0000E-04  9.0000E-04  2.7000E-03  2.7000E-03  2.7000E-03  2.7000E-02  2.7000E-02  2.7000E-02
       2.7000E-02  2.7000E-02  2.7000E-02  2.7000E-02  2.7000E-02  2.7000E-03  2.7000E-03  2.7000E-03  2.7000E-03  2.7000E-03
       9.0000E-03  9.0000E-03  9.0000E-03  9.0000E-03  9.0000E-03  9.0000E-03  2.7000E-03  2.7000E-03  2.7000E-03  2.7000E-03
       2.7000E-03  2.7000E-03  2.7000E-03  2.7000E-03  2.7000E-03  2.7000E-03  2.7000E-03  9.0000E-03  9.0000E-03  2.7000E-02
       9.0000E-03  2.7000E-03  2.7000E-03   0.000       0.000       0.000       0.000       0.000       0.000    
  34    0.000       0.000       0.000       0.000       0.000       0.000       0.000       0.000       0.000       0.000    
        0.000       0.000       0.000       0.000      4.5000E-04  4.5000E-04  4.5000E-04  4.5000E-04  4.5000E-04  4.5000E-04
       4.5000E-04  4.5000E-04  9.0000E-04  9.0000E-04  9.0000E-04  9.0000E-04  9.0000E-04  9.0000E-03  9.0000E-04  9.0000E-04
       9.0000E-04  9.0000E-04  9.0000E-04  9.0000E-04  2.7000E-03  2.7000E-03  2.7000E-02  2.7000E-02  2.7000E-02  2.7000E-02
       2.7000E-02  9.0000E-03  9.0000E-03  2.7000E-02  2.7000E-02  2.7000E-02  2.7000E-02  2.7000E-02  2.7000E-02  9.0000E-03
       9.0000E-03  9.0000E-03  2.7000E-02  2.7000E-02  2.7000E-02  9.0000E-03  2.7000E-03  2.7000E-03  2.7000E-03  2.7000E-03
       2.7000E-03  2.7000E-03  2.7000E-03  2.7000E-03  2.7000E-03  2.7000E-03  2.7000E-03  9.0000E-03  9.0000E-03  9.0000E-03
       2.7000E-03  9.0000E-04  9.0000E-04   0.000       0.000       0.000       0.000       0.000       0.000    
  35    0.000       0.000       0.000       0.000       0.000       0.000       0.000       0.000       0.000       0.000    
        0.000       0.000       0.000      4.5000E-04  4.5000E-04  4.5000E-04  4.5000E-04  4.5000E-04  9.0000E-04  9.0000E-04
       9.0000E-04  9.0000E-04  9.0000E-04  9.0000E-04  9.0000E-03  9.0000E-03  9.0000E-03  9.0000E-03  9.0000E-03  9.0000E-03
       9.0000E-04  9.0000E-04  9.0000E-03  9.0000E-03  2.7000E-02  2.7000E-02  2.7000E-02  2.7000E-02  9.0000E-03  9.0000E-03
       9.0000E-03  9.0000E-03  9.0000E-03  9.0000E-03  2.7000E-02  2.7000E-02  2.7000E-02  2.7000E-02  2.7000E-02  2.7000E-02
       2.7000E-02  2.7000E-02  2.7000E-02  2.7000E-02  2.7000E-02  2.7000E-02  2.7000E-03  2.7000E-03  2.7000E-03  2.7000E-03
       2.7000E-03  2.7000E-03  2.7000E-03  2.7000E-03  2.7000E-03  2.7000E-03  2.7000E-03  9.0000E-03  9.0000E-03  2.7000E-03
       2.7000E-03  9.0000E-04  4.5000E-04  4.5000E-04   0.000       0.000       0.000       0.000       0.000    
  36    0.000       0.000       0.000       0.000       0.000       0.000       0.000       0.000       0.000       0.000    
        0.000       0.000       0.000      4.5000E-04  4.5000E-04  4.5000E-04  4.5000E-04  9.0000E-04  9.0000E-04  9.0000E-04
       9.0000E-04  9.0000E-04  9.0000E-04  9.0000E-04  9.0000E-03  9.0000E-03  9.0000E-03  9.0000E-03  2.7000E-02  2.7000E-02
       2.7000E-02  2.7000E-02  2.7000E-02  2.7000E-02  2.7000E-02  2.7000E-02  2.7000E-02  2.7000E-02  9.0000E-03  9.0000E-03
       9.0000E-03  9.0000E-03  9.0000E-03  9.0000E-03  2.7000E-02  2.7000E-02  2.7000E-02  2.7000E-02  2.7000E-02  2.7000E-02
       2.7000E-02  2.7000E-02  2.7000E-02  2.7000E-02  2.7000E-02  2.7000E-02  2.7000E-02  9.0000E-03  9.0000E-03  2.7000E-03
       2.7000E-03  2.7000E-03  9.0000E-03  9.0000E-03  2.7000E-03  2.7000E-03  2.7000E-03  9.0000E-03  9.0000E-03  2.7000E-03
       2.7000E-03  2.7000E-03  4.5000E-04  4.5000E-04  4.5000E-04   0.000       0.000       0.000       0.000    
  37    0.000       0.000       0.000       0.000       0.000       0.000       0.000       0.000       0.000       0.000    
        0.000       0.000      4.5000E-04  4.5000E-04  4.5000E-04  4.5000E-04  9.0000E-04  9.0000E-04  9.0000E-04  9.0000E-04
       9.0000E-04  9.0000E-04  9.0000E-04  9.0000E-03  2.7000E-02  2.7000E-02  2.7000E-02  2.7000E-02  2.7000E-02  2.7000E-02
       2.7000E-02  2.7000E-02  2.7000E-02  2.7000E-02  2.7000E-02  2.7000E-02  2.7000E-02  2.7000E-02  2.7000E-03  2.7000E-03
       2.7000E-03  2.7000E-03  9.0000E-03  2.7000E-02  2.7000E-02  2.7000E-02  2.7000E-02  2.7000E-02  2.7000E-02  2.7000E-02
       2.7000E-02  2.7000E-02  2.7000E-02  2.7000E-02  2.7000E-02  2.7000E-02  2.7000E-02  2.7000E-02  2.7000E-02  2.7000E-02
       2.7000E-02  2.7000E-02  9.0000E-03  9.0000E-03  9.0000E-03  9.0000E-03  9.0000E-03  9.0000E-03  9.0000E-03  9.0000E-03
       2.7000E-03  2.7000E-03  9.0000E-04  4.5000E-04  4.5000E-04   0.000       0.000       0.000       0.000    
  38    0.000       0.000       0.000       0.000       0.000       0.000       0.000       0.000       0.000       0.000    
       9.0000E-04  9.0000E-04  4.5000E-04  9.0000E-04  9.0000E-04  9.0000E-04  9.0000E-04  9.0000E-04  9.0000E-03  9.0000E-03
       9.0000E-03  9.0000E-03  9.0000E-03  9.0000E-03  9.0000E-03  2.7000E-02  2.7000E-02  2.7000E-02  9.0000E-03  9.0000E-03
       2.7000E-02  2.7000E-02  2.7000E-02  2.7000E-02  2.7000E-02  2.7000E-02  2.7000E-02  2.7000E-02  2.7000E-03  2.7000E-03
       2.7000E-03  2.7000E-03  9.0000E-03  2.7000E-02  2.7000E-02  2.7000E-02  2.7000E-03  9.0000E-03  9.0000E-03  9.0000E-03
       9.0000E-03  9.0000E-03  2.7000E-02  2.7000E-02  2.7000E-02  2.7000E-02  2.7000E-02  2.7000E-02  2.7000E-02  2.7000E-02
       2.7000E-02  2.7000E-02  2.7000E-02  2.7000E-02  2.7000E-02  2.7000E-02  2.7000E-02  2.7000E-02  2.7000E-02  9.0000E-03
       9.0000E-03  2.7000E-03  9.0000E-04  4.5000E-04  4.5000E-04  9.0000E-04   0.000       0.000       0.000    
  39    0.000       0.000       0.000       0.000       0.000       0.000       0.000      4.5000E-04  4.5000E-04  9.0000E-04
       9.0000E-04  9.0000E-04  9.0000E-04  9.0000E-04  9.0000E-03  9.0000E-03  9.0000E-03  9.0000E-03  9.0000E-03  9.0000E-03
       9.0000E-03  9.0000E-03  9.0000E-03  2.7000E-03  2.7000E-03  2.7000E-03  2.7000E-03  2.7000E-03  9.0000E-03  2.7000E-02
       2.7000E-02  2.7000E-02  2.7000E-02  2.7000E-02  2.7000E-02  2.7000E-02  2.7000E-02  2.7000E-02  2.7000E-03  2.7000E-03
       2.7000E-03  2.7000E-03  2.7000E-03  2.7000E-02  2.7000E-02  2.7000E-03  2.7000E-03  2.7000E-03  9.0000E-03  9.0000E-03
       9.0000E-03  9.0000E-03  9.0000E-03  9.0000E-03  9.0000E-03  9.0000E-03  9.0000E-03  9.0000E-03  9.0000E-03  2.7000E-02
       2.7000E-02  2.7000E-02  2.7000E-02  2.7000E-02  2.7000E-02  2.7000E-02  2.7000E-02  2.7000E-02  2.7000E-02  2.7000E-02
       2.7000E-02  2.7000E-02  9.0000E-03  9.0000E-04  9.0000E-04  8.1000E-02   0.000       0.000       0.000    
  40    0.000       0.000       0.000       0.000       0.000       0.000      4.5000E-04  4.5000E-04  4.5000E-04  9.0000E-04
       9.0000E-04  9.0000E-04  9.0000E-03  9.0000E-03  9.0000E-03  9.0000E-03  9.0000E-03  9.0000E-03  9.0000E-04  9.0000E-04
       9.0000E-04  9.0000E-04  2.7000E-03  2.7000E-03  2.7000E-03  2.7000E-03  2.7000E-03  2.7000E-03  2.7000E-02  2.7000E-02
       2.7000E-02  2.7000E-02  2.7000E-02  2.7000E-02  2.7000E-02  2.7000E-02  2.7000E-02  2.7000E-02  2.7000E-03  2.7000E-03
       2.7000E-03  2.7000E-03  2.7000E-03  2.7000E-02  2.7000E-02  2.7000E-03  2.7000E-03  2.7000E-03  2.7000E-03  9.0000E-03
       9.0000E-03  9.0000E-03  9.0000E-03  9.0000E-03  9.0000E-03  9.0000E-03  2.7000E-03  2.7000E-03  9.0000E-03  2.7000E-02
       2.7000E-02  9.0000E-03  9.0000E-03  9.0000E-03  9.0000E-03  2.7000E-02  2.7000E-02  2.7000E-02  2.7000E-02  2.7000E-02
       2.7000E-02  2.7000E-02  2.7000E-02  2.7000E-02  2.7000E-02  8.1000E-02   0.000       0.000       0.000    
  41    0.000       0.000       0.000       0.000       0.000      4.5000E-04  4.5000E-04  4.5000E-04  9.0000E-04  9.0000E-04
       9.0000E-04  9.0000E-04  9.0000E-03  9.0000E-03  9.0000E-04  9.0000E-04  9.0000E-04  9.0000E-04  9.0000E-04  9.0000E-04
       9.0000E-04  2.7000E-03  2.7000E-03  2.7000E-03  2.7000E-03  2.7000E-03  2.7000E-03  2.7000E-03  2.7000E-02  2.7000E-02
       9.0000E-03  9.0000E-03  9.0000E-03  2.7000E-02  2.7000E-02  2.7000E-02  2.7000E-02  2.7000E-02  2.7000E-03  2.7000E-03
       2.7000E-03  2.7000E-03  2.7000E-03  2.7000E-02  2.7000E-02  2.7000E-02  2.7000E-03  2.7000E-03  2.7000E-03  9.0000E-03
       9.0000E-03  9.0000E-03  9.0000E-04  9.0000E-04  9.0000E-04  9.0000E-04  2.7000E-03  2.7000E-03  2.7000E-03  2.7000E-02
       2.7000E-02  9.0000E-03  2.7000E-03  9.0000E-03  9.0000E-03  9.0000E-03  2.7000E-03  2.7000E-03  2.7000E-02  2.7000E-02
       2.7000E-02  2.7000E-02  2.7000E-02  2.7000E-02  2.7000E-02   0.000       0.000       0.000       0.000    
  42    0.000       0.000       0.000       0.000       0.000      4.5000E-04  4.5000E-04  4.5000E-04  9.0000E-04  9.0000E-04
       9.0000E-04  9.0000E-04  9.0000E-04  9.0000E-04  9.0000E-04  9.0000E-04  9.0000E-04  9.0000E-04  9.0000E-04  2.7000E-03
       2.7000E-03  2.7000E-03  2.7000E-03  2.7000E-02  2.7000E-02  2.7000E-02  2.7000E-02  2.7000E-02  2.7000E-02  9.0000E-03
       9.0000E-03  9.0000E-03  9.0000E-03  9.0000E-03  2.7000E-02  2.7000E-02  2.7000E-02  2.7000E-02  2.7000E-03  2.7000E-03
       2.7000E-03  2.7000E-03  2.7000E-03  9.0000E-03  2.7000E-02  2.7000E-02  2.7000E-03  2.7000E-03  2.7000E-03  2.7000E-03
       9.0000E-04  9.0000E-04  9.0000E-04  9.0000E-04  9.0000E-04  9.0000E-04  9.0000E-04  2.7000E-03  2.7000E-03  2.7000E-02
       2.7000E-02  9.0000E-03  2.7000E-03  2.7000E-03  2.7000E-03  2.7000E-03  2.7000E-03  2.7000E-03  2.7000E-03  9.0000E-03
       2.7000E-02  2.7000E-02  2.7000E-02  2.7000E-02  2.7000E-02   0.000       0.000       0.000       0.000    
  43    0.000       0.000       0.000       0.000       0.000      4.5000E-04  4.5000E-04  4.5000E-04  9.0000E-04  9.0000E-04
       9.0000E-04  9.0000E-04  9.0000E-04  9.0000E-04  9.0000E-04  9.0000E-04  9.0000E-04  9.0000E-04  9.0000E-04  2.7000E-03
       2.7000E-03  2.7000E-03  2.7000E-02  2.7000E-02  2.7000E-02  9.0000E-03  9.0000E-03  9.0000E-03  9.0000E-03  9.0000E-03
       9.0000E-03  9.0000E-03  9.0000E-03  9.0000E-03  2.7000E-02  2.7000E-02  2.7000E-02  2.7000E-03  2.7000E-03  2.7000E-03
       2.7000E-03  2.7000E-03  2.7000E-03  9.0000E-03  2.7000E-02  2.7000E-02  2.7000E-03  2.7000E-03  2.7000E-03  2.7000E-03
       9.0000E-04  9.0000E-04  9.0000E-04  9.0000E-04  9.0000E-04  9.0000E-04  9.0000E-04  2.7000E-03  2.7000E-03  2.7000E-02
       2.7000E-02  2.7000E-03  2.7000E-03  2.7000E-03  2.7000E-03  2.7000E-03  2.7000E-03  2.7000E-03  2.7000E-03  9.0000E-03
       2.7000E-02  2.7000E-02  2.7000E-02  2.7000E-02  9.0000E-03   0.000       0.000       0.000       0.000    
  44    0.000       0.000       0.000       0.000       0.000      4.5000E-04  4.5000E-04  4.5000E-04  4.5000E-04  9.0000E-04
       9.0000E-04  9.0000E-04  9.0000E-04  9.0000E-04  9.0000E-04  2.7000E-03  2.7000E-03  2.7000E-03  2.7000E-03  9.0000E-03
       9.0000E-03  2.7000E-02  2.7000E-02  9.0000E-03  9.0000E-03  9.0000E-03  9.0000E-03  9.0000E-03  9.0000E-03  9.0000E-03
       9.0000E-03  9.0000E-03  9.0000E-03  9.0000E-03  2.7000E-02  2.7000E-02  2.7000E-02  2.7000E-03  2.7000E-03  2.7000E-03
       2.7000E-03  2.7000E-03  9.0000E-04  9.0000E-04  2.7000E-02  2.7000E-02  2.7000E-03  2.7000E-03  2.7000E-03  2.7000E-03
       2.7000E-03  9.0000E-04  4.5000E-04  4.5000E-04  4.5000E-04  9.0000E-04  9.0000E-04  2.7000E-03  2.7000E-03  9.0000E-03
       2.7000E-02  2.7000E-03  2.7000E-03  2.7000E-03  2.7000E-03  2.7000E-03  2.7000E-03  2.7000E-03  2.7000E-03  9.0000E-03
       9.0000E-03  2.7000E-02  2.7000E-02  9.0000E-03  9.0000E-03   0.000       0.000       0.000       0.000    
  45    0.000       0.000       0.000      4.5000E-04  4.5000E-04  4.5000E-04  4.5000E-04  4.5000E-04  9.0000E-04  9.0000E-04
       9.0000E-04  9.0000E-04  9.0000E-04  9.0000E-04  9.0000E-03  9.0000E-03  9.0000E-03  9.0000E-03  9.0000E-03  2.7000E-02
       2.7000E-02  2.7000E-02  9.0000E-03  9.0000E-03  9.0000E-03  9.0000E-03  9.0000E-03  9.0000E-03  9.0000E-03  9.0000E-03
       9.0000E-03  9.0000E-03  9.0000E-03  9.0000E-03  2.7000E-02  2.7000E-02  2.7000E-02  9.0000E-03  9.0000E-04  9.0000E-04
       9.0000E-04  9.0000E-04  9.0000E-04  9.0000E-04  2.7000E-02  2.7000E-02  2.7000E-03  2.7000E-03  4.5000E-04  4.5000E-04
       4.5000E-04  4.5000E-04  4.5000E-04  4.5000E-04  4.5000E-04  9.0000E-04  9.0000E-04  2.7000E-03  2.7000E-03  9.0000E-03
       2.7000E-02  2.7000E-03  2.7000E-03  2.7000E-03  2.7000E-03  2.7000E-03  2.7000E-03  2.7000E-03  2.7000E-03  9.0000E-03
       9.0000E-03  2.7000E-02  2.7000E-02  2.7000E-03  9.0000E-04   0.000       0.000       0.000       0.000    
  46    0.000       0.000       0.000      4.5000E-04  4.5000E-04  4.5000E-04  4.5000E-04  4.5000E-04  9.0000E-04  9.0000E-04
       9.0000E-04  9.0000E-03  9.0000E-03  9.0000E-03  9.0000E-03  9.0000E-03  2.7000E-02  2.7000E-02  2.7000E-02  2.7000E-02
       2.7000E-02  9.0000E-03  9.0000E-03  9.0000E-03  9.0000E-03  9.0000E-03  9.0000E-03  9.0000E-03  9.0000E-03  9.0000E-03
       9.0000E-03  9.0000E-03  9.0000E-03  9.0000E-03  2.7000E-02  2.7000E-02  2.7000E-02  2.7000E-03  9.0000E-04  9.0000E-04
       9.0000E-04  9.0000E-04  9.0000E-04  9.0000E-04  2.7000E-02  2.7000E-02  2.7000E-03  2.7000E-03  4.5000E-04  4.5000E-04
       4.5000E-04  4.5000E-04  4.5000E-04  4.5000E-04  4.5000E-04  9.0000E-04  9.0000E-04  2.7000E-03  2.7000E-03  9.0000E-03
       9.0000E-03  2.7000E-03  2.7000E-03  2.7000E-03  2.7000E-03  2.7000E-03  2.7000E-03  2.7000E-03  2.7000E-03  9.0000E-03
       9.0000E-03  2.7000E-02  9.0000E-03  2.7000E-03  2.7000E-03   0.000       0.000       0.000       0.000    
  47    0.000       0.000       0.000      4.5000E-04  4.5000E-04  4.5000E-04  4.5000E-04  9.0000E-04  9.0000E-04  9.0000E-04
       9.0000E-04  9.0000E-03  9.0000E-03  9.0000E-03  2.7000E-02  2.7000E-02  2.7000E-02  9.0000E-03  9.0000E-03  9.0000E-03
       9.0000E-03  9.0000E-03  9.0000E-03  9.0000E-03  9.0000E-03  9.0000E-03  9.0000E-03  9.0000E-03  9.0000E-03  2.7000E-03
       9.0000E-03  9.0000E-03  9.0000E-03  9.0000E-03  2.7000E-02  2.7000E-02  2.7000E-02  2.7000E-03  9.0000E-04  9.0000E-04
       9.0000E-04  9.0000E-04  9.0000E-04  9.0000E-04  2.7000E-02  2.7000E-02  2.7000E-03  2.7000E-03  4.5000E-04  4.5000E-04
       4.5000E-04  4.5000E-04  4.5000E-04  4.5000E-04  4.5000E-04  9.0000E-04  9.0000E-04  9.0000E-04  2.7000E-03  2.7000E-03
       9.0000E-03  2.7000E-03  2.7000E-03  2.7000E-03  2.7000E-03  2.7000E-03  2.7000E-03  2.7000E-03  2.7000E-03  9.0000E-03
       9.0000E-03  2.7000E-02  9.0000E-03  2.7000E-03  2.7000E-03   0.000       0.000       0.000       0.000    
  48    0.000       0.000       0.000      4.5000E-04  4.5000E-04  4.5000E-04  4.5000E-04  9.0000E-04  9.0000E-04  9.0000E-04
       9.0000E-04  9.0000E-03  2.7000E-02  2.7000E-02  2.7000E-02  9.0000E-03  9.0000E-03  9.0000E-03  9.0000E-03  9.0000E-03
       9.0000E-03  9.0000E-03  9.0000E-03  9.0000E-03  2.7000E-03  2.7000E-03  2.7000E-03  2.7000E-03  2.7000E-03  2.7000E-03
       9.0000E-03  9.0000E-03  9.0000E-03  9.0000E-03  2.7000E-02  2.7000E-02  2.7000E-02  2.7000E-02  9.0000E-04  9.0000E-04
       9.0000E-04  9.0000E-04  9.0000E-04  9.0000E-04  2.7000E-02  2.7000E-02  2.7000E-03  2.7000E-03  2.7000E-03  4.5000E-04
       4.5000E-04  4.5000E-04  4.5000E-04  4.5000E-04  4.5000E-04  4.5000E-04  9.0000E-04  9.0000E-04  2.7000E-03  2.7000E-03
       9.0000E-03  9.0000E-03  2.7000E-03  2.7000E-03  2.7000E-03  2.7000E-03  2.7000E-03  2.7000E-03  2.7000E-03  9.0000E-03
       2.7000E-02  2.7000E-02  9.0000E-03  2.7000E-03  2.7000E-03  2.7000E-03   0.000       0.000       0.000    
  49    0.000       0.000       0.000      4.5000E-04  4.5000E-04  4.5000E-04  4.5000E-04  9.0000E-04  9.0000E-04  9.0000E-04
       9.0000E-03  2.7000E-02  2.7000E-02  9.0000E-03  9.0000E-03  9.0000E-03  9.0000E-03  9.0000E-03  9.0000E-03  2.7000E-03
       2.7000E-03  2.7000E-03  2.7000E-03  2.7000E-03  2.7000E-03  2.7000E-03  2.7000E-03  2.7000E-03  2.7000E-03  2.7000E-03
       9.0000E-03  9.0000E-03  9.0000E-03  9.0000E-03  2.7000E-02  2.7000E-02  2.7000E-02  2.7000E-02  2.7000E-02  9.0000E-04
       9.0000E-04  9.0000E-04  9.0000E-04  9.0000E-04  9.0000E-04  2.7000E-02  2.7000E-02  9.0000E-03  2.7000E-03  4.5000E-04
       4.5000E-04  4.5000E-04  4.5000E-04  4.5000E-04  4.5000E-04  4.5000E-04  9.0000E-04  9.0000E-04  2.7000E-03  2.7000E-03
       9.0000E-03  9.0000E-03  2.7000E-03  2.7000E-03  2.7000E-03  2.7000E-03  2.7000E-03  2.7000E-03  2.7000E-03  9.0000E-03
       2.7000E-02  2.7000E-02  9.0000E-03  2.7000E-03  2.7000E-03  2.7000E-03   0.000       0.000       0.000    
  50    0.000       0.000       0.000      4.5000E-04  4.5000E-04  4.5000E-04  9.0000E-04  9.0000E-04  9.0000E-04  9.0000E-04
       2.7000E-02  2.7000E-02  2.7000E-02  2.7000E-02  9.0000E-03  2.7000E-03  2.7000E-03  2.7000E-03  2.7000E-03  2.7000E-03
       2.7000E-03  2.7000E-03  2.7000E-03  2.7000E-03  2.7000E-03  2.7000E-03  2.7000E-03  2.7000E-03  2.7000E-03  2.7000E-03
       2.7000E-03  9.0000E-03  9.0000E-03  9.0000E-03  9.0000E-03  2.7000E-02  2.7000E-02  2.7000E-02  2.7000E-02  2.7000E-02
       9.0000E-04  9.0000E-04  9.0000E-04  9.0000E-04  9.0000E-04  9.0000E-04  2.7000E-02  2.7000E-02  9.0000E-03  4.5000E-04
       4.5000E-04  4.5000E-04  4.5000E-04  4.5000E-04  4.5000E-04  4.5000E-04  9.0000E-04  9.0000E-04  2.7000E-03  2.7000E-03
       9.0000E-03  9.0000E-03  2.7000E-03  2.7000E-03  2.7000E-03  2.7000E-03  2.7000E-03  2.7000E-03  2.7000E-03  9.0000E-03
       2.7000E-02  2.7000E-02  9.0000E-03  9.0000E-03  2.7000E-03  2.7000E-03   0.000       0.000       0.000    
  51    0.000       0.000       0.000      4.5000E-04  4.5000E-04  9.0000E-04  9.0000E-04  9.0000E-04  9.0000E-04  2.7000E-02
       2.7000E-02  2.7000E-02  2.7000E-02  9.0000E-03  9.0000E-03  9.0000E-04  9.0000E-04  2.7000E-03  2.7000E-03  2.7000E-03
       2.7000E-03  2.7000E-03  2.7000E-03  2.7000E-03  2.7000E-03  2.7000E-03  2.7000E-03  2.7000E-03  2.7000E-03  2.7000E-03
       2.7000E-03  9.0000E-03  9.0000E-03  9.0000E-03  9.0000E-03  2.7000E-02  2.7000E-02  2.7000E-02  2.7000E-02  2.7000E-02
       9.0000E-04  9.0000E-04  9.0000E-04  9.0000E-04  9.0000E-04  9.0000E-04  2.7000E-02  2.7000E-02  2.7000E-02  4.5000E-04
       4.5000E-04  4.5000E-04  4.5000E-04  4.5000E-04  4.5000E-04  4.5000E-04  9.0000E-04  9.0000E-04  2.7000E-03  2.7000E-03
       9.0000E-03  9.0000E-03  9.0000E-03  2.7000E-03  2.7000E-03  2.7000E-03  2.7000E-03  2.7000E-03  2.7000E-03  9.0000E-03
       2.7000E-02  2.7000E-02  9.0000E-03  9.0000E-03  2.7000E-03  2.7000E-03   0.000       0.000       0.000    
  52    0.000       0.000      4.5000E-04  4.5000E-04  4.5000E-04  9.0000E-04  9.0000E-04  9.0000E-04  9.0000E-04  2.7000E-02
       2.7000E-02  2.7000E-02  9.0000E-03  9.0000E-04  9.0000E-04  9.0000E-04  9.0000E-04  9.0000E-04  9.0000E-04  2.7000E-03
       2.7000E-03  2.7000E-03  2.7000E-03  2.7000E-03  2.7000E-03  2.7000E-03  2.7000E-03  2.7000E-03  2.7000E-03  2.7000E-03
       2.7000E-03  9.0000E-03  9.0000E-03  9.0000E-03  9.0000E-03  2.7000E-02  2.7000E-02  2.7000E-02  2.7000E-02  2.7000E-02
       9.0000E-04  9.0000E-04  9.0000E-04  9.0000E-04  9.0000E-04  9.0000E-04  9.0000E-04  2.7000E-02  2.7000E-02  4.5000E-04
       4.5000E-04  4.5000E-04  4.5000E-04  4.5000E-04  4.5000E-04  4.5000E-04  9.0000E-04  9.0000E-04  9.0000E-04  2.7000E-03
       9.0000E-03  9.0000E-03  9.0000E-03  2.7000E-03  2.7000E-03  2.7000E-03  2.7000E-03  2.7000E-03  2.7000E-03  9.0000E-03
       2.7000E-02  2.7000E-02  2.7000E-02  9.0000E-03  2.7000E-03  2.7000E-03   0.000       0.000       0.000    
  53    0.000       0.000      4.5000E-04  4.5000E-04  4.5000E-04  9.0000E-04  9.0000E-04  9.0000E-04  2.7000E-02  2.7000E-02
       2.7000E-02  9.0000E-03  9.0000E-04  9.0000E-04  9.0000E-04  9.0000E-04  9.0000E-04  9.0000E-04  9.0000E-04  9.0000E-04
       9.0000E-04  2.7000E-03  2.7000E-03  2.7000E-03  2.7000E-03  2.7000E-03  2.7000E-03  2.7000E-03  2.7000E-03  2.7000E-03
       2.7000E-03  9.0000E-03  9.0000E-03  9.0000E-03  9.0000E-03  2.7000E-02  2.7000E-02  2.7000E-02  2.7000E-02  9.0000E-04
       9.0000E-04  9.0000E-04  9.0000E-04  9.0000E-04  9.0000E-04  9.0000E-04  9.0000E-04  2.7000E-02  9.0000E-03  2.7000E-02
       4.5000E-04  4.5000E-04  4.5000E-04  4.5000E-04  4.5000E-04  4.5000E-04  4.5000E-04  9.0000E-04  9.0000E-04  2.7000E-03
       9.0000E-03  9.0000E-03  9.0000E-03  2.7000E-03  2.7000E-03  2.7000E-03  2.7000E-03  2.7000E-03  2.7000E-03  9.0000E-03
       9.0000E-03  2.7000E-02  2.7000E-02  9.0000E-03  2.7000E-03  2.7000E-03  2.7000E-03   0.000       0.000    
  54    0.000       0.000      4.5000E-04  4.5000E-04  4.5000E-04  9.0000E-04  9.0000E-04  9.0000E-04  2.7000E-02  2.7000E-02
       2.7000E-02  9.0000E-04  9.0000E-04  9.0000E-04  9.0000E-04  9.0000E-04  9.0000E-04  9.0000E-04  9.0000E-04  9.0000E-04
       9.0000E-04  2.7000E-03  2.7000E-03  2.7000E-03  2.7000E-03  2.7000E-03  2.7000E-03  2.7000E-03  2.7000E-03  2.7000E-03
       2.7000E-03  9.0000E-03  9.0000E-03  9.0000E-03  9.0000E-03  2.7000E-02  2.7000E-02  2.7000E-02  2.7000E-02  2.7000E-03
       9.0000E-04  9.0000E-04  9.0000E-04  4.5000E-04  4.5000E-04  4.5000E-04  9.0000E-04  9.0000E-03  9.0000E-03  9.0000E-03
       4.5000E-04  4.5000E-04  4.5000E-04  4.5000E-04  4.5000E-04  4.5000E-04  4.5000E-04  9.0000E-04  9.0000E-04  2.7000E-03
       9.0000E-03  9.0000E-03  9.0000E-03  2.7000E-03  2.7000E-03  2.7000E-03  2.7000E-03  2.7000E-03  2.7000E-03  9.0000E-03
       9.0000E-03  9.0000E-03  9.0000E-03  9.0000E-03  2.7000E-03  2.7000E-03  2.7000E-03   0.000       0.000    
  55    0.000      4.5000E-04  4.5000E-04  4.5000E-04  9.0000E-04  9.0000E-04  9.0000E-04  9.0000E-03  9.0000E-03  9.0000E-03
       9.0000E-03  9.0000E-04  9.0000E-04  9.0000E-04  9.0000E-04  9.0000E-04  9.0000E-04  9.0000E-04  9.0000E-04  9.0000E-04
       9.0000E-04  9.0000E-04  2.7000E-03  2.7000E-03  2.7000E-03  2.7000E-03  2.7000E-03  2.7000E-03  2.7000E-03  2.7000E-03
       2.7000E-03  2.7000E-03  9.0000E-03  9.0000E-03  9.0000E-03  2.7000E-02  2.7000E-02  2.7000E-02  2.7000E-02  2.7000E-03
       9.0000E-04  4.5000E-04  4.5000E-04  4.5000E-04  4.5000E-04  4.5000E-04  9.0000E-04  9.0000E-03  9.0000E-03  9.0000E-03
       4.5000E-04  4.5000E-04  4.5000E-04  4.5000E-04  4.5000E-04  4.5000E-04  4.5000E-04  9.0000E-04  9.0000E-04  2.7000E-03
       9.0000E-03  9.0000E-03  9.0000E-03  2.7000E-03  2.7000E-03  2.7000E-03  2.7000E-03  2.7000E-03  2.7000E-03  9.0000E-03
       9.0000E-03  9.0000E-03  9.0000E-03  9.0000E-03  9.0000E-03  2.7000E-03  2.7000E-03   0.000       0.000    
  56    0.000      4.5000E-04  4.5000E-04  9.0000E-04  9.0000E-04  9.0000E-04  9.0000E-03  9.0000E-03  9.0000E-03  9.0000E-03
       9.0000E-03  9.0000E-04  9.0000E-04  9.0000E-04  9.0000E-04  9.0000E-04  9.0000E-04  9.0000E-04  9.0000E-04  9.0000E-04
       9.0000E-04  9.0000E-04  9.0000E-04  2.7000E-03  2.7000E-03  2.7000E-03  2.7000E-03  2.7000E-03  2.7000E-03  2.7000E-03
       2.7000E-03  2.7000E-03  9.0000E-03  9.0000E-03  9.0000E-03  2.7000E-02  2.7000E-02  2.7000E-02  2.7000E-02  2.7000E-03
       9.0000E-04  4.5000E-04  4.5000E-04  4.5000E-04  4.5000E-04  4.5000E-04  9.0000E-04  9.0000E-03  9.0000E-03  9.0000E-03
       4.5000E-04  4.5000E-04  4.5000E-04  4.5000E-04  4.5000E-04  4.5000E-04  4.5000E-04  9.0000E-04  9.0000E-04  2.7000E-03
       9.0000E-03  9.0000E-03  9.0000E-03  2.7000E-03  2.7000E-03  9.0000E-04  9.0000E-04  9.0000E-04  2.7000E-03  2.7000E-03
       9.0000E-03  9.0000E-03  9.0000E-03  9.0000E-03  9.0000E-03  2.7000E-03  2.7000E-03   0.000       0.000    
  57   4.5000E-04  4.5000E-04  9.0000E-04  9.0000E-04  9.0000E-04  9.0000E-03  9.0000E-03  9.0000E-03  9.0000E-03  9.0000E-04
       9.0000E-04  9.0000E-04  9.0000E-04  9.0000E-04  9.0000E-04  9.0000E-04  9.0000E-04  9.0000E-04  9.0000E-04  9.0000E-04
       9.0000E-04  9.0000E-04  9.0000E-04  9.0000E-04  9.0000E-04  9.0000E-04  2.7000E-03  2.7000E-03  2.7000E-03  2.7000E-03
       2.7000E-03  2.7000E-03  9.0000E-03  9.0000E-03  9.0000E-03  2.7000E-02  2.7000E-02  2.7000E-02  2.7000E-03  2.7000E-03
       9.0000E-04  4.5000E-04  4.5000E-04  4.5000E-04  4.5000E-04  4.5000E-04  9.0000E-04  9.0000E-03  9.0000E-03  9.0000E-03
       4.5000E-04  4.5000E-04  4.5000E-04  4.5000E-04  4.5000E-04  4.5000E-04  4.5000E-04  9.0000E-04  9.0000E-04  9.0000E-04
       2.7000E-03  9.0000E-03  9.0000E-03  2.7000E-03  2.7000E-03  9.0000E-04  9.0000E-04  9.0000E-04  2.7000E-03  2.7000E-03
       9.0000E-03  9.0000E-03  2.7000E-03  2.7000E-03  2.7000E-03  2.7000E-03  2.7000E-03   0.000       0.000    
  58   4.5000E-04  4.5000E-04  9.0000E-04  9.0000E-04  9.0000E-04  9.0000E-03  9.0000E-04  9.0000E-04  9.0000E-04  9.0000E-04
       9.0000E-04  9.0000E-04  9.0000E-04  9.0000E-04  9.0000E-04  9.0000E-04  4.5000E-04  9.0000E-04  9.0000E-04  9.0000E-04
       9.0000E-04  9.0000E-04  9.0000E-04  9.0000E-04  9.0000E-04  9.0000E-04  9.0000E-04  2.7000E-03  2.7000E-03  2.7000E-03
       2.7000E-03  2.7000E-03  9.0000E-03  9.0000E-03  9.0000E-03  2.7000E-02  2.7000E-02  2.7000E-02  2.7000E-03  2.7000E-03
       9.0000E-04  4.5000E-04  4.5000E-04  4.5000E-04  4.5000E-04  4.5000E-04  4.5000E-04  9.0000E-04  9.0000E-03  9.0000E-03
       9.0000E-03  2.7000E-03  9.0000E-04  4.5000E-04  4.5000E-04  4.5000E-04  4.5000E-04  9.0000E-04  9.0000E-04  9.0000E-04
       2.7000E-03  9.0000E-03  2.7000E-03  2.7000E-03  2.7000E-03  9.0000E-04  9.0000E-04  9.0000E-04  2.7000E-03  9.0000E-03
       9.0000E-03  9.0000E-03  2.7000E-03  2.7000E-03  2.7000E-03  2.7000E-03  2.7000E-03   0.000       0.000    
  59   4.5000E-04  4.5000E-04  9.0000E-04  9.0000E-04  9.0000E-04  9.0000E-04  9.0000E-04  9.0000E-04  9.0000E-04  9.0000E-04
       9.0000E-04  4.5000E-04  4.5000E-04  4.5000E-04  4.5000E-04  4.5000E-04  4.5000E-04  9.0000E-04  9.0000E-04  9.0000E-04
       9.0000E-04  9.0000E-04  9.0000E-04  9.0000E-04  9.0000E-04  9.0000E-04  9.0000E-04  9.0000E-04  2.7000E-03  2.7000E-03
       2.7000E-03  2.7000E-03  9.0000E-03  9.0000E-03  9.0000E-03  9.0000E-03  2.7000E-02  2.7000E-02  2.7000E-02  2.7000E-03
       9.0000E-04  9.0000E-04  4.5000E-04  4.5000E-04  4.5000E-04  4.5000E-04  4.5000E-04  9.0000E-04  9.0000E-03  9.0000E-04
       9.0000E-03  2.7000E-03  9.0000E-04  4.5000E-04  4.5000E-04  4.5000E-04  4.5000E-04  9.0000E-04  9.0000E-04  9.0000E-04
       2.7000E-03  2.7000E-03  2.7000E-03  9.0000E-04  9.0000E-04  9.0000E-04  9.0000E-04  9.0000E-04  2.7000E-03  9.0000E-03
       9.0000E-03  9.0000E-03  2.7000E-03  2.7000E-03  2.7000E-03  2.7000E-03  2.7000E-03  2.7000E-03   0.000    
  60    0.000      4.5000E-04  4.5000E-04  9.0000E-04  9.0000E-04  9.0000E-04  4.5000E-04  4.5000E-04  4.5000E-04  4.5000E-04
       4.5000E-04  4.5000E-04  4.5000E-04   0.000       0.000       0.000      4.5000E-04  4.5000E-04  9.0000E-04  9.0000E-04
       9.0000E-04  9.0000E-04  9.0000E-04  9.0000E-04  9.0000E-04  9.0000E-04  9.0000E-04  9.0000E-04  9.0000E-04  2.7000E-03
       2.7000E-03  2.7000E-03  2.7000E-03  9.0000E-03  9.0000E-03  9.0000E-03  2.7000E-02  2.7000E-02  2.7000E-02  2.7000E-03
       9.0000E-04  9.0000E-04  4.5000E-04  4.5000E-04  4.5000E-04  4.5000E-04  4.5000E-04  9.0000E-04  9.0000E-04  9.0000E-04
       9.0000E-03  2.7000E-03  9.0000E-04  4.5000E-04  9.0000E-04  9.0000E-04  9.0000E-04  9.0000E-04  9.0000E-04  2.7000E-03
       2.7000E-03  2.7000E-03  9.0000E-04  9.0000E-04  9.0000E-04  9.0000E-04  9.0000E-04  9.0000E-04  2.7000E-03  9.0000E-03
       9.0000E-03  2.7000E-03  2.7000E-03  2.7000E-03  2.7000E-03  2.7000E-03  2.7000E-03  2.7000E-03  2.7000E-03
  61    0.000       0.000      4.5000E-04  4.5000E-04  4.5000E-04  4.5000E-04  4.5000E-04  4.5000E-04  4.5000E-04  4.5000E-04
       4.5000E-04   0.000       0.000       0.000       0.000       0.000       0.000      4.5000E-04  4.5000E-04  9.0000E-04
       9.0000E-04  9.0000E-04  9.0000E-04  9.0000E-04  9.0000E-04  9.0000E-04  9.0000E-04  9.0000E-04  9.0000E-04  9.0000E-04
       2.7000E-03  2.7000E-03  2.7000E-03  9.0000E-03  9.0000E-03  9.0000E-03  2.7000E-02  2.7000E-02  2.7000E-02  2.7000E-03
       9.0000E-04  9.0000E-04  4.5000E-04  4.5000E-04  4.5000E-04  4.5000E-04  4.5000E-04  4.5000E-04  9.0000E-04  9.0000E-04
       9.0000E-03  9.0000E-03  9.0000E-04  9.0000E-04  9.0000E-04  9.0000E-04  9.0000E-04  9.0000E-04  9.0000E-04  9.0000E-04
       9.0000E-04  9.0000E-04  9.0000E-04  9.0000E-04  9.0000E-04  9.0000E-04  9.0000E-04  9.0000E-04  2.7000E-03  9.0000E-03
       9.0000E-03  2.7000E-03  2.7000E-03  2.7000E-03  2.7000E-03  2.7000E-03  2.7000E-03  2.7000E-03  2.7000E-03
  62    0.000       0.000       0.000      4.5000E-04   0.000       0.000       0.000       0.000       0.000       0.000    
        0.000       0.000       0.000       0.000       0.000       0.000       0.000       0.000       0.000      4.5000E-04
       9.0000E-04  9.0000E-04  9.0000E-04  9.0000E-04  9.0000E-04  9.0000E-04  9.0000E-04  9.0000E-04  9.0000E-04  9.0000E-04
       2.7000E-03  2.7000E-03  2.7000E-03  9.0000E-03  9.0000E-03  9.0000E-03  2.7000E-02  2.7000E-02  9.0000E-03  2.7000E-03
       9.0000E-04  9.0000E-04  4.5000E-04  4.5000E-04  4.5000E-04  4.5000E-04  4.5000E-04  4.5000E-04  9.0000E-04  9.0000E-04
       9.0000E-04  9.0000E-04  9.0000E-03  9.0000E-04  9.0000E-04  9.0000E-04  9.0000E-04  9.0000E-04  9.0000E-04  9.0000E-04
       9.0000E-04  9.0000E-04  9.0000E-04  9.0000E-04  9.0000E-04  9.0000E-04  9.0000E-04  9.0000E-04  2.7000E-03  9.0000E-03
       2.7000E-03  2.7000E-03  2.7000E-03  2.7000E-03  2.7000E-03  2.7000E-03  2.7000E-03  9.0000E-04  9.0000E-04
  63    0.000       0.000       0.000       0.000       0.000       0.000       0.000       0.000       0.000       0.000    
        0.000       0.000       0.000       0.000       0.000       0.000       0.000       0.000       0.000      4.5000E-04
       4.5000E-04  4.5000E-04  9.0000E-04  9.0000E-04  9.0000E-04  9.0000E-04  9.0000E-04  9.0000E-04  9.0000E-04  9.0000E-04
       9.0000E-04  2.7000E-03  2.7000E-03  9.0000E-03  9.0000E-03  9.0000E-03  2.7000E-02  2.7000E-02  9.0000E-03  2.7000E-03
       2.7000E-03  9.0000E-04  9.0000E-04  4.5000E-04  4.5000E-04  4.5000E-04  4.5000E-04  4.5000E-04  4.5000E-04  4.5000E-04
       9.0000E-04  9.0000E-04  9.0000E-03  9.0000E-03  9.0000E-04  9.0000E-04  9.0000E-04  9.0000E-04  9.0000E-04  9.0000E-04
       9.0000E-04  9.0000E-04  9.0000E-04  9.0000E-04  9.0000E-04  9.0000E-04  9.0000E-04  9.0000E-04  2.7000E-03  2.7000E-03
       2.7000E-03  2.7000E-03  2.7000E-03  2.7000E-03  2.7000E-03  2.7000E-03  2.7000E-03  9.0000E-04  9.0000E-04
  64    0.000       0.000       0.000       0.000       0.000       0.000       0.000       0.000       0.000       0.000    
        0.000       0.000       0.000       0.000       0.000       0.000       0.000       0.000       0.000       0.000    
        0.000       0.000       0.000       0.000      9.0000E-04  9.0000E-04  9.0000E-04  9.0000E-04  9.0000E-04  9.0000E-04
       9.0000E-04  9.0000E-04  2.7000E-03  2.7000E-03  9.0000E-03  9.0000E-03  9.0000E-03  2.7000E-02  2.7000E-02  9.0000E-03
       9.0000E-04  9.0000E-04  9.0000E-04  4.5000E-04  4.5000E-04  4.5000E-04  4.5000E-04  4.5000E-04  4.5000E-04  4.5000E-04
       9.0000E-04  9.0000E-04  2.7000E-03  9.0000E-03  9.0000E-04  9.0000E-04  9.0000E-04  9.0000E-04  9.0000E-04  9.0000E-04
       9.0000E-04  9.0000E-04  9.0000E-04  9.0000E-04  9.0000E-04  9.0000E-04  9.0000E-04  2.7000E-03  2.7000E-03  2.7000E-03
       2.7000E-03  2.7000E-03  2.7000E-03  2.7000E-03  2.7000E-03  2.7000E-03  9.0000E-04  9.0000E-04  9.0000E-04
  65    0.000       0.000       0.000       0.000       0.000       0.000       0.000       0.000       0.000       0.000    
        0.000       0.000       0.000       0.000       0.000       0.000       0.000       0.000       0.000       0.000    
        0.000       0.000       0.000       0.000       0.000       0.000       0.000       0.000       0.000       0.000    
        0.000       0.000       0.000      2.7000E-03  9.0000E-03  9.0000E-03  9.0000E-03  9.0000E-03  9.0000E-03  9.0000E-03
       9.0000E-04  9.0000E-04  9.0000E-04  4.5000E-04  4.5000E-04   0.000       0.000       0.000       0.000      4.5000E-04
       4.5000E-04  9.0000E-04  2.7000E-03  2.7000E-03  9.0000E-04  9.0000E-04  9.0000E-04  9.0000E-04  9.0000E-04  9.0000E-04
       9.0000E-04  9.0000E-04  9.0000E-04  9.0000E-04  9.0000E-04  9.0000E-04  9.0000E-04  2.7000E-03  2.7000E-03  2.7000E-03
       2.7000E-03  2.7000E-03  2.7000E-03  2.7000E-03  2.7000E-03  2.7000E-03  2.7000E-03  9.0000E-04  9.0000E-04
  66    0.000       0.000       0.000       0.000       0.000       0.000       0.000       0.000       0.000       0.000    
        0.000       0.000       0.000       0.000       0.000       0.000       0.000       0.000       0.000       0.000    
        0.000       0.000       0.000       0.000       0.000       0.000       0.000       0.000       0.000       0.000    
        0.000       0.000       0.000       0.000       0.000      2.7000E-03  2.7000E-03   0.000       0.000       0.000    
        0.000       0.000       0.000       0.000       0.000       0.000       0.000       0.000       0.000       0.000    
       4.5000E-04  9.0000E-04  2.7000E-03  2.7000E-03  2.7000E-03  9.0000E-04  9.0000E-04  9.0000E-04  9.0000E-04  9.0000E-04
       9.0000E-04  9.0000E-04  9.0000E-04  9.0000E-04  9.0000E-04  9.0000E-04  9.0000E-04  9.0000E-04  2.7000E-03  2.7000E-03
       2.7000E-03  2.7000E-03  2.7000E-03  2.7000E-03  2.7000E-03  2.7000E-03  2.7000E-03  9.0000E-04  9.0000E-04
  67    0.000       0.000       0.000       0.000       0.000       0.000       0.000       0.000       0.000       0.000    
        0.000       0.000       0.000       0.000       0.000       0.000       0.000       0.000       0.000       0.000    
        0.000       0.000       0.000       0.000       0.000       0.000       0.000       0.000       0.000       0.000    
        0.000       0.000       0.000       0.000       0.000       0.000       0.000       0.000       0.000       0.000    
        0.000       0.000       0.000       0.000       0.000       0.000       0.000       0.000       0.000       0.000    
        0.000       0.000      4.5000E-04  2.7000E-03  9.0000E-04  9.0000E-04  9.0000E-04  9.0000E-04  9.0000E-04  4.5000E-04
       4.5000E-04  4.5000E-04  4.5000E-04  4.5000E-04  9.0000E-04  9.0000E-04  9.0000E-04  9.0000E-04  2.7000E-03  2.7000E-03
       2.7000E-03   0.000       0.000       0.000       0.000       0.000       0.000       0.000       0.000    
  68    0.000       0.000       0.000       0.000       0.000       0.000       0.000       0.000       0.000       0.000    
        0.000       0.000       0.000       0.000       0.000       0.000       0.000       0.000       0.000       0.000    
        0.000       0.000       0.000       0.000       0.000       0.000       0.000       0.000       0.000       0.000    
        0.000       0.000       0.000       0.000       0.000       0.000       0.000       0.000       0.000       0.000    
        0.000       0.000       0.000       0.000       0.000       0.000       0.000       0.000       0.000       0.000    
        0.000       0.000       0.000      4.5000E-04  9.0000E-04  9.0000E-04  9.0000E-04  4.5000E-04  4.5000E-04  4.5000E-04
       4.5000E-04  4.5000E-04  4.5000E-04  4.5000E-04  9.0000E-04  9.0000E-04  9.0000E-04  2.7000E-03   0.000       0.000    
        0.000       0.000       0.000       0.000       0.000       0.000       0.000       0.000       0.000    
  69    0.000       0.000       0.000       0.000       0.000       0.000       0.000       0.000       0.000       0.000    
        0.000       0.000       0.000       0.000       0.000       0.000       0.000       0.000       0.000       0.000    
        0.000       0.000       0.000       0.000       0.000       0.000       0.000       0.000       0.000       0.000    
        0.000       0.000       0.000       0.000       0.000       0.000       0.000       0.000       0.000       0.000    
        0.000       0.000       0.000       0.000       0.000       0.000       0.000       0.000       0.000       0.000    
        0.000       0.000       0.000       0.000       0.000       0.000       0.000       0.000       0.000       0.000    
       4.5000E-04  4.5000E-04  4.5000E-04  4.5000E-04  2.7000E-03  2.7000E-03  2.7000E-03   0.000       0.000       0.000    
        0.000       0.000       0.000       0.000       0.000       0.000       0.000       0.000       0.000    
  70    0.000       0.000       0.000       0.000       0.000       0.000       0.000       0.000       0.000       0.000    
        0.000       0.000       0.000       0.000       0.000       0.000       0.000       0.000       0.000       0.000    
        0.000       0.000       0.000       0.000       0.000       0.000       0.000       0.000       0.000       0.000    
        0.000       0.000       0.000       0.000       0.000       0.000       0.000       0.000       0.000       0.000    
        0.000       0.000       0.000       0.000       0.000       0.000       0.000       0.000       0.000       0.000    
        0.000       0.000       0.000       0.000       0.000       0.000       0.000       0.000       0.000       0.000    
        0.000      4.5000E-04  4.5000E-04  4.5000E-04  2.7000E-03  2.7000E-03   0.000       0.000       0.000       0.000    
        0.000       0.000       0.000       0.000       0.000       0.000       0.000       0.000       0.000    
  71    0.000       0.000       0.000       0.000       0.000       0.000       0.000       0.000       0.000       0.000    
        0.000       0.000       0.000       0.000       0.000       0.000       0.000       0.000       0.000       0.000    
        0.000       0.000       0.000       0.000       0.000       0.000       0.000       0.000       0.000       0.000    
        0.000       0.000       0.000       0.000       0.000       0.000       0.000       0.000       0.000       0.000    
        0.000       0.000       0.000       0.000       0.000       0.000       0.000       0.000       0.000       0.000    
        0.000       0.000       0.000       0.000       0.000       0.000       0.000       0.000       0.000       0.000    
        0.000       0.000      4.5000E-04  9.0000E-04   0.000       0.000       0.000       0.000       0.000       0.000    
        0.000       0.000       0.000       0.000       0.000       0.000       0.000       0.000       0.000    



                VERTICAL HYD. COND. FOR LAYER   2
 READING ON UNIT   12 WITH FORMAT: (FREE)              

            1           2           3           4           5           6           7           8           9          10
           11          12          13          14          15          16          17          18          19          20
           21          22          23          24          25          26          27          28          29          30
           31          32          33          34          35          36          37          38          39          40
           41          42          43          44          45          46          47          48          49          50
           51          52          53          54          55          56          57          58          59          60
           61          62          63          64          65          66          67          68          69          70
           71          72          73          74          75          76          77          78          79
 ........................................................................................................................
   1    0.000       0.000       0.000       0.000       0.000       0.000       0.000       0.000       0.000       0.000    
        0.000       0.000       0.000       0.000       0.000       0.000       0.000       0.000       0.000       0.000    
        0.000       0.000       0.000       0.000       0.000       0.000       0.000       0.000       0.000       0.000    
        0.000       0.000       0.000       0.000       0.000       0.000       0.000       0.000       0.000       0.000    
        0.000       0.000       0.000       0.000       0.000       0.000       0.000       0.000       0.000       0.000    
        0.000      4.5000E-04  4.5000E-04   0.000       0.000       0.000       0.000       0.000       0.000       0.000    
        0.000       0.000       0.000       0.000       0.000       0.000       0.000       0.000       0.000       0.000    
        0.000       0.000       0.000       0.000       0.000       0.000       0.000       0.000       0.000    
   2    0.000       0.000       0.000       0.000       0.000       0.000       0.000       0.000       0.000       0.000    
        0.000       0.000       0.000       0.000       0.000       0.000       0.000       0.000       0.000       0.000    
        0.000       0.000       0.000       0.000       0.000       0.000       0.000       0.000       0.000       0.000    
        0.000       0.000       0.000       0.000       0.000       0.000       0.000       0.000       0.000       0.000    
        0.000       0.000       0.000       0.000       0.000       0.000       0.000       0.000       0.000       0.000    
        0.000      4.5000E-04  2.7000E-03  2.7000E-03   0.000       0.000       0.000       0.000       0.000       0.000    
        0.000       0.000       0.000       0.000       0.000       0.000       0.000       0.000       0.000       0.000    
        0.000       0.000       0.000       0.000       0.000       0.000       0.000       0.000       0.000    
   3    0.000       0.000       0.000       0.000       0.000       0.000       0.000       0.000       0.000       0.000    
        0.000       0.000       0.000       0.000       0.000       0.000       0.000       0.000       0.000       0.000    
        0.000       0.000       0.000       0.000       0.000       0.000       0.000       0.000       0.000       0.000    
        0.000       0.000       0.000       0.000       0.000       0.000       0.000       0.000       0.000       0.000    
        0.000       0.000       0.000       0.000       0.000       0.000       0.000       0.000       0.000       0.000    
        0.000      4.5000E-04  2.7000E-03  9.0000E-03   0.000       0.000       0.000       0.000       0.000       0.000    
        0.000       0.000       0.000       0.000       0.000       0.000       0.000       0.000       0.000       0.000    
        0.000       0.000       0.000       0.000       0.000       0.000       0.000       0.000       0.000    
   4    0.000       0.000       0.000       0.000       0.000       0.000       0.000       0.000       0.000       0.000    
        0.000       0.000       0.000       0.000       0.000       0.000       0.000       0.000       0.000       0.000    
        0.000       0.000       0.000       0.000       0.000       0.000       0.000       0.000       0.000       0.000    
        0.000       0.000       0.000       0.000       0.000       0.000       0.000       0.000       0.000       0.000    
        0.000       0.000       0.000       0.000       0.000       0.000       0.000       0.000       0.000       0.000    
        0.000      2.7000E-03  2.7000E-03  9.0000E-03  9.0000E-03   0.000       0.000       0.000       0.000       0.000    
        0.000       0.000       0.000       0.000       0.000       0.000       0.000       0.000       0.000       0.000    
        0.000       0.000       0.000       0.000       0.000       0.000       0.000       0.000       0.000    
   5    0.000       0.000       0.000       0.000       0.000       0.000       0.000       0.000       0.000       0.000    
        0.000       0.000       0.000       0.000       0.000       0.000       0.000       0.000       0.000       0.000    
        0.000       0.000       0.000       0.000       0.000       0.000       0.000       0.000       0.000       0.000    
        0.000       0.000       0.000       0.000       0.000       0.000       0.000       0.000       0.000       0.000    
        0.000       0.000       0.000       0.000       0.000       0.000       0.000       0.000       0.000       0.000    
        0.000      2.7000E-03  2.7000E-03  2.7000E-03  9.0000E-03  2.7000E-03  2.7000E-03   0.000       0.000       0.000    
        0.000       0.000       0.000       0.000       0.000       0.000       0.000       0.000       0.000       0.000    
        0.000       0.000       0.000       0.000       0.000       0.000       0.000       0.000       0.000    
   6    0.000       0.000       0.000       0.000       0.000       0.000       0.000       0.000       0.000       0.000    
        0.000       0.000       0.000       0.000       0.000       0.000       0.000       0.000       0.000       0.000    
        0.000       0.000       0.000       0.000       0.000       0.000       0.000       0.000       0.000       0.000    
        0.000       0.000       0.000       0.000       0.000       0.000       0.000       0.000       0.000       0.000    
        0.000       0.000       0.000       0.000       0.000       0.000       0.000       0.000       0.000       0.000    
        0.000      2.7000E-03  2.7000E-03  2.7000E-03  9.0000E-03  9.0000E-03  2.7000E-03  2.7000E-03  2.7000E-03   0.000    
        0.000       0.000       0.000      2.7000E-03  2.7000E-03   0.000       0.000       0.000       0.000       0.000    
        0.000       0.000       0.000       0.000       0.000       0.000       0.000       0.000       0.000    
   7    0.000       0.000       0.000       0.000       0.000       0.000       0.000       0.000       0.000       0.000    
        0.000       0.000       0.000       0.000       0.000       0.000       0.000       0.000       0.000       0.000    
        0.000       0.000       0.000       0.000       0.000       0.000       0.000       0.000       0.000       0.000    
        0.000       0.000       0.000       0.000       0.000       0.000       0.000       0.000       0.000       0.000    
        0.000       0.000       0.000       0.000       0.000       0.000       0.000       0.000       0.000       0.000    
        0.000      2.7000E-03  2.7000E-03  2.7000E-03  9.0000E-03  9.0000E-03  9.0000E-03  2.7000E-03  2.7000E-03  2.7000E-03
       2.7000E-03  2.7000E-03  2.7000E-03  2.7000E-03  2.7000E-03  2.7000E-03   0.000       0.000       0.000       0.000    
        0.000       0.000       0.000       0.000       0.000       0.000       0.000       0.000       0.000    
   8    0.000       0.000       0.000       0.000       0.000       0.000       0.000       0.000       0.000       0.000    
        0.000       0.000       0.000       0.000       0.000       0.000       0.000       0.000       0.000       0.000    
        0.000       0.000       0.000       0.000       0.000       0.000       0.000       0.000       0.000       0.000    
        0.000       0.000       0.000       0.000       0.000       0.000       0.000       0.000       0.000       0.000    
        0.000       0.000       0.000       0.000       0.000       0.000       0.000       0.000       0.000       0.000    
        0.000      2.7000E-03  2.7000E-03  2.7000E-03  9.0000E-03  9.0000E-03  9.0000E-03  2.7000E-03  2.7000E-03  2.7000E-03
       2.7000E-03  2.7000E-03  2.7000E-03  2.7000E-03  2.7000E-03  2.7000E-03  2.7000E-03  2.7000E-03   0.000       0.000    
        0.000       0.000       0.000       0.000       0.000       0.000       0.000       0.000       0.000    
   9    0.000       0.000       0.000       0.000       0.000       0.000       0.000       0.000       0.000       0.000    
        0.000       0.000       0.000       0.000       0.000       0.000       0.000       0.000       0.000       0.000    
        0.000       0.000       0.000       0.000       0.000       0.000       0.000       0.000       0.000       0.000    
        0.000       0.000       0.000       0.000       0.000       0.000       0.000       0.000       0.000       0.000    
        0.000       0.000       0.000       0.000       0.000       0.000       0.000       0.000       0.000       0.000    
       9.0000E-04  2.7000E-03  2.7000E-03  2.7000E-03  9.0000E-03  9.0000E-03  9.0000E-03  2.7000E-03  2.7000E-03  2.7000E-03
       2.7000E-03  2.7000E-03  2.7000E-03  2.7000E-03  2.7000E-03  2.7000E-03  2.7000E-03  2.7000E-03  2.7000E-03   0.000    
        0.000       0.000       0.000       0.000       0.000       0.000       0.000       0.000       0.000    
  10    0.000       0.000       0.000       0.000       0.000       0.000       0.000       0.000       0.000       0.000    
        0.000       0.000       0.000       0.000       0.000       0.000       0.000       0.000       0.000       0.000    
        0.000       0.000       0.000       0.000       0.000       0.000       0.000       0.000       0.000       0.000    
        0.000       0.000       0.000       0.000       0.000       0.000       0.000       0.000       0.000       0.000    
        0.000       0.000       0.000       0.000       0.000       0.000       0.000       0.000       0.000      2.7000E-03
       2.7000E-03  2.7000E-03  2.7000E-03  2.7000E-03  2.7000E-03  9.0000E-03  9.0000E-03  9.0000E-03  2.7000E-03  2.7000E-03
       2.7000E-03  2.7000E-03  2.7000E-03  2.7000E-03  2.7000E-03  2.7000E-03  2.7000E-03  2.7000E-03  2.7000E-03  2.7000E-03
        0.000       0.000       0.000       0.000       0.000       0.000       0.000       0.000       0.000    
  11    0.000       0.000       0.000       0.000       0.000       0.000       0.000       0.000       0.000       0.000    
        0.000       0.000       0.000       0.000       0.000       0.000       0.000       0.000       0.000       0.000    
        0.000       0.000       0.000       0.000       0.000       0.000       0.000       0.000       0.000       0.000    
        0.000       0.000       0.000       0.000       0.000       0.000       0.000       0.000       0.000       0.000    
        0.000       0.000       0.000       0.000       0.000       0.000       0.000       0.000      2.7000E-03  2.7000E-03
       2.7000E-03  2.7000E-03  2.7000E-03  2.7000E-03  2.7000E-03  9.0000E-03  9.0000E-03  9.0000E-03  2.7000E-03  2.7000E-03
       2.7000E-03  2.7000E-03  2.7000E-03  2.7000E-03  2.7000E-03  2.7000E-03  2.7000E-03  2.7000E-03  2.7000E-03  2.7000E-03
       2.7000E-03   0.000       0.000       0.000       0.000       0.000       0.000       0.000       0.000    
  12    0.000       0.000       0.000       0.000       0.000       0.000       0.000       0.000       0.000       0.000    
        0.000       0.000       0.000       0.000       0.000       0.000       0.000       0.000       0.000       0.000    
        0.000       0.000       0.000       0.000       0.000       0.000       0.000       0.000       0.000       0.000    
        0.000       0.000       0.000       0.000       0.000       0.000       0.000       0.000       0.000       0.000    
        0.000      9.0000E-04  9.0000E-04   0.000       0.000       0.000       0.000      9.0000E-04  2.7000E-03  2.7000E-03
       2.7000E-03  2.7000E-03  2.7000E-03  2.7000E-03  2.7000E-03  9.0000E-03  9.0000E-03  9.0000E-03  2.7000E-03  2.7000E-03
       2.7000E-03  2.7000E-03  2.7000E-03  2.7000E-03  2.7000E-03  2.7000E-03  2.7000E-03  2.7000E-03  2.7000E-03  2.7000E-03
       2.7000E-03   0.000       0.000       0.000       0.000       0.000       0.000       0.000       0.000    
  13    0.000       0.000       0.000       0.000       0.000       0.000       0.000       0.000       0.000       0.000    
        0.000       0.000       0.000       0.000       0.000       0.000       0.000       0.000       0.000       0.000    
        0.000       0.000       0.000       0.000       0.000       0.000       0.000       0.000       0.000       0.000    
        0.000       0.000       0.000       0.000       0.000       0.000       0.000       0.000      9.0000E-04  9.0000E-04
       9.0000E-04  9.0000E-04  9.0000E-04  9.0000E-04  9.0000E-04  9.0000E-04  9.0000E-04  9.0000E-04  2.7000E-03  2.7000E-03
       2.7000E-03  2.7000E-03  2.7000E-03  2.7000E-03  2.7000E-03  9.0000E-03  9.0000E-03  9.0000E-03  2.7000E-03  2.7000E-03
       2.7000E-03  2.7000E-03  2.7000E-03  2.7000E-03  2.7000E-03  2.7000E-03  2.7000E-03  2.7000E-03  2.7000E-03  2.7000E-03
       2.7000E-03  2.7000E-03   0.000       0.000       0.000       0.000       0.000       0.000       0.000    
  14    0.000       0.000       0.000       0.000       0.000       0.000       0.000       0.000       0.000       0.000    
        0.000       0.000       0.000       0.000       0.000       0.000       0.000       0.000       0.000       0.000    
        0.000       0.000       0.000       0.000       0.000       0.000       0.000       0.000       0.000       0.000    
        0.000       0.000       0.000       0.000       0.000       0.000       0.000       0.000      9.0000E-04  9.0000E-04
       9.0000E-04  9.0000E-04  9.0000E-04  9.0000E-04  2.7000E-03  2.7000E-03  2.7000E-03  2.7000E-03  2.7000E-03  2.7000E-03
       2.7000E-03  2.7000E-03  2.7000E-03  2.7000E-03  2.7000E-03  9.0000E-03  9.0000E-03  9.0000E-03  9.0000E-03  9.0000E-03
       2.7000E-03  2.7000E-03  2.7000E-03  2.7000E-03  2.7000E-03  2.7000E-03  2.7000E-03  9.0000E-03  2.7000E-03  2.7000E-03
       2.7000E-03  2.7000E-03  2.7000E-03   0.000       0.000       0.000       0.000       0.000       0.000    
  15    0.000       0.000       0.000       0.000       0.000       0.000       0.000       0.000       0.000       0.000    
        0.000       0.000       0.000       0.000       0.000       0.000       0.000       0.000       0.000       0.000    
        0.000       0.000       0.000       0.000       0.000       0.000       0.000       0.000       0.000       0.000    
        0.000       0.000       0.000       0.000       0.000       0.000       0.000      9.0000E-04  9.0000E-04  9.0000E-04
       2.7000E-03  2.7000E-03  2.7000E-03  2.7000E-03  2.7000E-03  2.7000E-03  2.7000E-03  2.7000E-03  2.7000E-03  2.7000E-03
       2.7000E-03  2.7000E-03  2.7000E-03  2.7000E-03  2.7000E-03  2.7000E-03  9.0000E-03  9.0000E-03  9.0000E-03  9.0000E-03
       9.0000E-03  2.7000E-03  2.7000E-03  9.0000E-03  9.0000E-03  9.0000E-03  9.0000E-03  9.0000E-03  9.0000E-03  2.7000E-03
       2.7000E-03  2.7000E-03  2.7000E-03   0.000       0.000       0.000       0.000       0.000       0.000    
  16    0.000       0.000       0.000       0.000       0.000       0.000       0.000       0.000       0.000       0.000    
        0.000       0.000       0.000       0.000       0.000       0.000       0.000       0.000       0.000       0.000    
        0.000       0.000       0.000       0.000       0.000       0.000       0.000       0.000       0.000       0.000    
        0.000       0.000       0.000       0.000       0.000       0.000      9.0000E-04  9.0000E-04  9.0000E-04  9.0000E-04
       9.0000E-04  2.7000E-03  2.7000E-03  2.7000E-03  2.7000E-03  2.7000E-03  2.7000E-03  2.7000E-03  2.7000E-03  2.7000E-03
       2.7000E-03  2.7000E-03  2.7000E-03  2.7000E-03  2.7000E-03  2.7000E-03  9.0000E-03  9.0000E-03  9.0000E-03  9.0000E-03
       9.0000E-03  9.0000E-03  9.0000E-03  9.0000E-03  9.0000E-03  9.0000E-03  9.0000E-03  9.0000E-03  9.0000E-03  2.7000E-03
       2.7000E-03  2.7000E-03  2.7000E-03  2.7000E-03   0.000       0.000       0.000       0.000       0.000    
  17    0.000       0.000       0.000       0.000       0.000       0.000       0.000       0.000       0.000       0.000    
        0.000       0.000       0.000       0.000       0.000       0.000       0.000       0.000       0.000       0.000    
        0.000       0.000       0.000       0.000       0.000       0.000       0.000       0.000       0.000       0.000    
        0.000       0.000       0.000       0.000       0.000      9.0000E-04  9.0000E-04  9.0000E-04  9.0000E-04  9.0000E-04
       9.0000E-04  2.7000E-03  2.7000E-03  2.7000E-03  2.7000E-03  2.7000E-03  2.7000E-03  2.7000E-03  2.7000E-03  2.7000E-03
       2.7000E-03  2.7000E-03  2.7000E-03  2.7000E-03  2.7000E-03  2.7000E-03  9.0000E-03  9.0000E-03  9.0000E-03  9.0000E-03
       9.0000E-03  9.0000E-03  9.0000E-03  9.0000E-03  9.0000E-03  9.0000E-03  9.0000E-03  9.0000E-03  9.0000E-03  2.7000E-03
       2.7000E-03  2.7000E-03  2.7000E-03  2.7000E-03   0.000       0.000       0.000       0.000       0.000    
  18    0.000       0.000       0.000       0.000       0.000       0.000       0.000       0.000       0.000       0.000    
        0.000       0.000       0.000       0.000       0.000       0.000       0.000       0.000       0.000       0.000    
        0.000       0.000       0.000       0.000       0.000       0.000       0.000       0.000       0.000       0.000    
        0.000       0.000       0.000       0.000      9.0000E-04  9.0000E-04  9.0000E-04  9.0000E-04  9.0000E-04  9.0000E-04
       9.0000E-04  9.0000E-04  9.0000E-04  2.7000E-03  2.7000E-03  2.7000E-03  2.7000E-03  2.7000E-03  2.7000E-03  2.7000E-03
       2.7000E-03  2.7000E-03  2.7000E-03  2.7000E-03  2.7000E-03  2.7000E-03  9.0000E-03  9.0000E-03  9.0000E-03  9.0000E-03
       9.0000E-03  9.0000E-03  9.0000E-03  9.0000E-03  9.0000E-03  9.0000E-03  9.0000E-03  9.0000E-03  9.0000E-03  9.0000E-03
       2.7000E-03  2.7000E-03  2.7000E-03  2.7000E-03   0.000       0.000       0.000       0.000       0.000    
  19    0.000       0.000       0.000       0.000       0.000       0.000       0.000       0.000       0.000       0.000    
        0.000       0.000       0.000       0.000       0.000       0.000       0.000       0.000       0.000       0.000    
        0.000       0.000       0.000       0.000       0.000       0.000       0.000       0.000       0.000       0.000    
        0.000       0.000       0.000      9.0000E-04  9.0000E-04  9.0000E-04  9.0000E-04  9.0000E-04  9.0000E-04  9.0000E-04
       9.0000E-04  9.0000E-04  9.0000E-04  9.0000E-04  2.7000E-03  2.7000E-03  2.7000E-03  2.7000E-03  2.7000E-03  2.7000E-03
       2.7000E-03  2.7000E-03  2.7000E-03  2.7000E-03  2.7000E-03  2.7000E-03  2.7000E-03  9.0000E-03  9.0000E-03  9.0000E-03
       9.0000E-03  9.0000E-03  9.0000E-03  9.0000E-03  9.0000E-03  9.0000E-03  9.0000E-03  9.0000E-03  9.0000E-03  9.0000E-03
       2.7000E-03  2.7000E-03  2.7000E-03  2.7000E-03   0.000       0.000       0.000       0.000       0.000    
  20    0.000       0.000       0.000       0.000       0.000       0.000       0.000       0.000       0.000       0.000    
        0.000       0.000       0.000       0.000       0.000       0.000       0.000       0.000       0.000       0.000    
        0.000       0.000       0.000       0.000       0.000       0.000       0.000       0.000       0.000       0.000    
        0.000       0.000       0.000      4.5000E-04  9.0000E-04  9.0000E-04  9.0000E-04  9.0000E-04  9.0000E-04  9.0000E-04
       9.0000E-04  9.0000E-04  9.0000E-04  9.0000E-04  2.7000E-03  2.7000E-03  2.7000E-03  2.7000E-03  2.7000E-03  2.7000E-03
       2.7000E-03  2.7000E-03  2.7000E-03  2.7000E-03  2.7000E-03  2.7000E-03  2.7000E-03  9.0000E-03  9.0000E-03  9.0000E-03
       9.0000E-03  9.0000E-03  9.0000E-03  9.0000E-03  9.0000E-03  9.0000E-03  9.0000E-03  9.0000E-03  9.0000E-03  9.0000E-03
       2.7000E-03  2.7000E-03  2.7000E-03  2.7000E-03   0.000       0.000       0.000       0.000       0.000    
  21    0.000       0.000       0.000       0.000       0.000       0.000       0.000       0.000       0.000       0.000    
        0.000       0.000       0.000       0.000       0.000       0.000       0.000       0.000       0.000       0.000    
        0.000       0.000       0.000       0.000       0.000       0.000       0.000       0.000       0.000       0.000    
        0.000       0.000      4.5000E-04  4.5000E-04  9.0000E-04  4.5000E-04  9.0000E-04  9.0000E-04  9.0000E-04  9.0000E-04
       9.0000E-04  9.0000E-04  9.0000E-04  9.0000E-04  9.0000E-04  2.7000E-03  2.7000E-03  2.7000E-03  2.7000E-03  2.7000E-03
       2.7000E-03  2.7000E-03  2.7000E-03  2.7000E-03  2.7000E-03  2.7000E-03  2.7000E-03  2.7000E-03  9.0000E-03  9.0000E-03
       9.0000E-03  9.0000E-03  9.0000E-03  9.0000E-03  9.0000E-03  9.0000E-03  9.0000E-03  9.0000E-03  9.0000E-03  2.7000E-03
       2.7000E-03  2.7000E-03  2.7000E-03  2.7000E-03  2.7000E-03   0.000       0.000       0.000       0.000    
  22    0.000       0.000       0.000       0.000       0.000       0.000       0.000       0.000       0.000       0.000    
        0.000       0.000       0.000       0.000       0.000       0.000       0.000       0.000       0.000       0.000    
        0.000       0.000       0.000       0.000       0.000       0.000       0.000       0.000       0.000       0.000    
        0.000       0.000      4.5000E-04  4.5000E-04  4.5000E-04  4.5000E-04  9.0000E-04  9.0000E-04  9.0000E-04  9.0000E-04
       9.0000E-04  9.0000E-04  9.0000E-04  9.0000E-04  9.0000E-04  2.7000E-03  2.7000E-03  2.7000E-03  2.7000E-03  2.7000E-03
       2.7000E-03  2.7000E-03  2.7000E-03  2.7000E-03  2.7000E-03  2.7000E-03  2.7000E-03  2.7000E-03  2.7000E-03  2.7000E-03
       2.7000E-03  9.0000E-03  9.0000E-03  9.0000E-03  9.0000E-03  9.0000E-03  9.0000E-03  9.0000E-03  9.0000E-03  2.7000E-03
       2.7000E-03  2.7000E-03  2.7000E-03  2.7000E-03   0.000       0.000       0.000       0.000       0.000    
  23    0.000       0.000       0.000       0.000       0.000       0.000       0.000       0.000       0.000       0.000    
        0.000       0.000       0.000       0.000       0.000       0.000       0.000       0.000       0.000       0.000    
        0.000       0.000       0.000       0.000       0.000       0.000       0.000       0.000       0.000       0.000    
        0.000      4.5000E-04  4.5000E-04  4.5000E-04  4.5000E-04  9.0000E-04  9.0000E-04  9.0000E-04  9.0000E-04  9.0000E-04
       9.0000E-04  9.0000E-04  9.0000E-04  9.0000E-04  9.0000E-04  2.7000E-03  2.7000E-03  9.0000E-03  2.7000E-03  2.7000E-03
       2.7000E-03  2.7000E-03  2.7000E-03  2.7000E-03  2.7000E-03  2.7000E-03  2.7000E-03  2.7000E-03  2.7000E-03  2.7000E-03
       2.7000E-03  2.7000E-03  9.0000E-03  9.0000E-03  9.0000E-03  9.0000E-03  9.0000E-03  9.0000E-03  9.0000E-03  2.7000E-03
       2.7000E-03   0.000       0.000       0.000       0.000       0.000       0.000       0.000       0.000    
  24    0.000       0.000       0.000       0.000       0.000       0.000       0.000       0.000       0.000       0.000    
        0.000       0.000       0.000       0.000       0.000       0.000       0.000       0.000       0.000       0.000    
        0.000       0.000       0.000       0.000       0.000       0.000       0.000       0.000      4.5000E-04  4.5000E-04
       4.5000E-04  4.5000E-04  4.5000E-04  4.5000E-04  4.5000E-04  9.0000E-04  9.0000E-04  9.0000E-04  9.0000E-04  9.0000E-04
       9.0000E-04  9.0000E-04  9.0000E-04  9.0000E-04  9.0000E-04  2.7000E-03  2.7000E-03  9.0000E-03  9.0000E-03  2.7000E-03
       2.7000E-03  2.7000E-03  2.7000E-03  2.7000E-03  2.7000E-03  2.7000E-03  2.7000E-03  2.7000E-03  2.7000E-03  2.7000E-03
       2.7000E-03  2.7000E-03  2.7000E-03  9.0000E-03  9.0000E-03  9.0000E-03  9.0000E-03  9.0000E-03  9.0000E-03  2.7000E-03
       2.7000E-03   0.000       0.000       0.000       0.000       0.000       0.000       0.000       0.000    
  25    0.000       0.000       0.000       0.000       0.000       0.000       0.000       0.000       0.000       0.000    
        0.000       0.000       0.000       0.000       0.000       0.000       0.000       0.000       0.000       0.000    
        0.000       0.000       0.000       0.000       0.000       0.000       0.000      4.5000E-04  4.5000E-04  4.5000E-04
       4.5000E-04  4.5000E-04  4.5000E-04  4.5000E-04  9.0000E-04  9.0000E-04  9.0000E-04  9.0000E-04  9.0000E-04  9.0000E-04
       9.0000E-04  9.0000E-04  9.0000E-04  9.0000E-04  2.7000E-03  2.7000E-03  2.7000E-03  9.0000E-03  9.0000E-03  2.7000E-03
       2.7000E-03  2.7000E-03  2.7000E-03  2.7000E-03  2.7000E-03  2.7000E-03  2.7000E-03  2.7000E-03  2.7000E-03  2.7000E-03
       2.7000E-03  2.7000E-03  2.7000E-03  2.7000E-03  2.7000E-03  9.0000E-03  9.0000E-03  9.0000E-03  9.0000E-03  2.7000E-03
       2.7000E-03   0.000       0.000       0.000       0.000       0.000       0.000       0.000       0.000    
  26    0.000       0.000       0.000       0.000       0.000       0.000       0.000       0.000       0.000       0.000    
        0.000       0.000       0.000       0.000       0.000       0.000       0.000       0.000       0.000       0.000    
        0.000       0.000       0.000       0.000       0.000      4.5000E-04  4.5000E-04  4.5000E-04  4.5000E-04  4.5000E-04
       4.5000E-04  4.5000E-04  4.5000E-04  9.0000E-04  9.0000E-04  9.0000E-04  9.0000E-04  9.0000E-04  9.0000E-04  9.0000E-04
       9.0000E-04  9.0000E-04  2.7000E-03  2.7000E-03  2.7000E-03  2.7000E-03  2.7000E-03  2.7000E-03  9.0000E-03  9.0000E-03
       9.0000E-03  2.7000E-03  2.7000E-03  2.7000E-03  2.7000E-03  2.7000E-03  2.7000E-03  2.7000E-03  2.7000E-03  2.7000E-03
       2.7000E-03  2.7000E-03  2.7000E-03  2.7000E-03  2.7000E-03  9.0000E-03  9.0000E-03  9.0000E-03  9.0000E-03  2.7000E-03
       2.7000E-03   0.000       0.000       0.000       0.000       0.000       0.000       0.000       0.000    
  27    0.000       0.000       0.000       0.000       0.000       0.000       0.000       0.000       0.000       0.000    
        0.000       0.000       0.000       0.000       0.000       0.000       0.000       0.000       0.000       0.000    
        0.000       0.000       0.000       0.000      4.5000E-04  4.5000E-04  4.5000E-04  4.5000E-04  4.5000E-04  4.5000E-04
       4.5000E-04  4.5000E-04  9.0000E-04  9.0000E-04  9.0000E-04  9.0000E-04  9.0000E-04  9.0000E-04  9.0000E-04  9.0000E-04
       9.0000E-04  2.7000E-03  2.7000E-03  2.7000E-03  2.7000E-03  2.7000E-03  2.7000E-03  2.7000E-03  2.7000E-03  9.0000E-03
       9.0000E-03  2.7000E-03  2.7000E-03  2.7000E-03  2.7000E-03  2.7000E-03  2.7000E-03  2.7000E-03  2.7000E-03  2.7000E-03
       2.7000E-03  2.7000E-03  2.7000E-03  2.7000E-03  2.7000E-03  9.0000E-03  9.0000E-03  9.0000E-03  9.0000E-03  9.0000E-03
       2.7000E-03   0.000       0.000       0.000       0.000       0.000       0.000       0.000       0.000    
  28    0.000       0.000       0.000       0.000       0.000       0.000       0.000       0.000       0.000       0.000    
        0.000       0.000       0.000       0.000       0.000       0.000       0.000       0.000       0.000       0.000    
        0.000       0.000       0.000      4.5000E-04  4.5000E-04  4.5000E-04  4.5000E-04  4.5000E-04  4.5000E-04  4.5000E-04
       4.5000E-04  9.0000E-04  9.0000E-04  9.0000E-04  9.0000E-04  9.0000E-04  9.0000E-04  9.0000E-04  2.7000E-03  2.7000E-03
       2.7000E-03  2.7000E-03  2.7000E-03  2.7000E-03  2.7000E-03  2.7000E-03  2.7000E-03  2.7000E-03  2.7000E-03  2.7000E-03
       9.0000E-03  9.0000E-03  2.7000E-03  2.7000E-03  2.7000E-03  2.7000E-03  2.7000E-03  2.7000E-03  2.7000E-03  2.7000E-03
       2.7000E-03  2.7000E-03  2.7000E-03  2.7000E-03  2.7000E-03  2.7000E-03  9.0000E-03  9.0000E-03  2.7000E-02  9.0000E-03
       2.7000E-03  2.7000E-03   0.000       0.000       0.000       0.000       0.000       0.000       0.000    
  29    0.000       0.000       0.000       0.000       0.000       0.000       0.000       0.000       0.000       0.000    
        0.000       0.000       0.000       0.000       0.000       0.000       0.000       0.000       0.000       0.000    
        0.000      4.5000E-04  4.5000E-04  4.5000E-04  4.5000E-04  4.5000E-04  4.5000E-04  4.5000E-04  4.5000E-04  9.0000E-04
       9.0000E-04  9.0000E-04  9.0000E-04  9.0000E-04  9.0000E-04  9.0000E-04  9.0000E-04  2.7000E-03  2.7000E-03  2.7000E-03
       2.7000E-03  2.7000E-03  2.7000E-03  2.7000E-03  2.7000E-03  2.7000E-03  2.7000E-03  2.7000E-03  2.7000E-03  2.7000E-03
       9.0000E-03  9.0000E-03  2.7000E-03  2.7000E-03  2.7000E-03  2.7000E-03  2.7000E-03  2.7000E-03  2.7000E-03  2.7000E-03
       2.7000E-03  2.7000E-03  2.7000E-03  2.7000E-03  2.7000E-03  2.7000E-03  9.0000E-03  9.0000E-03  2.7000E-02  9.0000E-03
       2.7000E-03  2.7000E-03   0.000       0.000       0.000       0.000       0.000       0.000       0.000    
  30    0.000       0.000       0.000       0.000       0.000       0.000       0.000       0.000       0.000       0.000    
        0.000       0.000       0.000       0.000       0.000       0.000       0.000       0.000       0.000      4.5000E-04
       4.5000E-04  4.5000E-04  4.5000E-04  4.5000E-04  4.5000E-04  4.5000E-04  4.5000E-04  9.0000E-04  9.0000E-04  9.0000E-04
       9.0000E-04  9.0000E-04  9.0000E-04  9.0000E-04  9.0000E-04  9.0000E-04  9.0000E-04  2.7000E-03  2.7000E-03  2.7000E-03
       2.7000E-03  2.7000E-03  2.7000E-03  2.7000E-03  2.7000E-03  2.7000E-03  2.7000E-03  2.7000E-03  2.7000E-03  2.7000E-03
       9.0000E-03  9.0000E-03  2.7000E-03  2.7000E-03  2.7000E-03  2.7000E-03  2.7000E-03  2.7000E-03  2.7000E-03  2.7000E-03
       2.7000E-03  2.7000E-03  2.7000E-03  2.7000E-03  2.7000E-03  2.7000E-03  9.0000E-03  9.0000E-03  2.7000E-02  9.0000E-03
       2.7000E-03  2.7000E-03   0.000       0.000       0.000       0.000       0.000       0.000       0.000    
  31    0.000       0.000       0.000       0.000       0.000       0.000       0.000       0.000       0.000       0.000    
        0.000       0.000       0.000       0.000       0.000       0.000       0.000       0.000      4.5000E-04  4.5000E-04
       4.5000E-04  4.5000E-04  4.5000E-04  9.0000E-04  9.0000E-04  9.0000E-04  9.0000E-04  9.0000E-04  9.0000E-04  9.0000E-04
       9.0000E-04  9.0000E-04  9.0000E-04  9.0000E-04  9.0000E-04  9.0000E-04  2.7000E-03  2.7000E-03  2.7000E-03  2.7000E-03
       2.7000E-03  2.7000E-03  2.7000E-03  9.0000E-03  2.7000E-03  2.7000E-03  2.7000E-03  2.7000E-03  2.7000E-03  2.7000E-03
       9.0000E-03  9.0000E-03  2.7000E-03  2.7000E-03  2.7000E-03  2.7000E-03  2.7000E-03  2.7000E-03  2.7000E-03  2.7000E-03
       2.7000E-03  2.7000E-03  2.7000E-03  2.7000E-03  2.7000E-03  2.7000E-03  9.0000E-03  9.0000E-03  2.7000E-02  2.7000E-02
       2.7000E-03  2.7000E-03   0.000       0.000       0.000       0.000       0.000       0.000       0.000    
  32    0.000       0.000       0.000       0.000       0.000       0.000       0.000       0.000       0.000       0.000    
        0.000       0.000       0.000       0.000       0.000       0.000      4.5000E-04  4.5000E-04  4.5000E-04  4.5000E-04
       4.5000E-04  4.5000E-04  9.0000E-04  9.0000E-04  9.0000E-04  9.0000E-04  9.0000E-04  9.0000E-04  9.0000E-04  9.0000E-04
       9.0000E-04  9.0000E-04  9.0000E-04  9.0000E-04  9.0000E-04  9.0000E-04  2.7000E-03  2.7000E-03  2.7000E-02  2.7000E-02
       2.7000E-02  2.7000E-02  2.7000E-02  2.7000E-02  2.7000E-03  2.7000E-03  2.7000E-03  2.7000E-03  2.7000E-03  2.7000E-03
       9.0000E-03  9.0000E-03  9.0000E-03  2.7000E-03  2.7000E-03  2.7000E-03  2.7000E-03  2.7000E-03  2.7000E-03  2.7000E-03
       2.7000E-03  2.7000E-03  2.7000E-03  2.7000E-03  2.7000E-03  2.7000E-03  2.7000E-03  9.0000E-03  9.0000E-03  2.7000E-02
       9.0000E-03  2.7000E-03   0.000       0.000       0.000       0.000       0.000       0.000       0.000    
  33    0.000       0.000       0.000       0.000       0.000       0.000       0.000       0.000       0.000       0.000    
        0.000       0.000       0.000       0.000       0.000      4.5000E-04  4.5000E-04  4.5000E-04  4.5000E-04  4.5000E-04
       4.5000E-04  4.5000E-04  9.0000E-04  9.0000E-04  9.0000E-04  9.0000E-04  9.0000E-04  9.0000E-04  9.0000E-04  9.0000E-04
       9.0000E-04  9.0000E-04  9.0000E-04  9.0000E-04  2.7000E-03  2.7000E-03  2.7000E-03  2.7000E-02  2.7000E-02  2.7000E-02
       2.7000E-02  2.7000E-02  2.7000E-02  2.7000E-02  2.7000E-02  2.7000E-03  2.7000E-03  2.7000E-03  2.7000E-03  2.7000E-03
       9.0000E-03  9.0000E-03  9.0000E-03  9.0000E-03  9.0000E-03  9.0000E-03  2.7000E-03  2.7000E-03  2.7000E-03  2.7000E-03
       2.7000E-03  2.7000E-03  2.7000E-03  2.7000E-03  2.7000E-03  2.7000E-03  2.7000E-03  9.0000E-03  9.0000E-03  2.7000E-02
       9.0000E-03  2.7000E-03  2.7000E-03   0.000       0.000       0.000       0.000       0.000       0.000    
  34    0.000       0.000       0.000       0.000       0.000       0.000       0.000       0.000       0.000       0.000    
        0.000       0.000       0.000       0.000      4.5000E-04  4.5000E-04  4.5000E-04  4.5000E-04  4.5000E-04  4.5000E-04
       4.5000E-04  4.5000E-04  9.0000E-04  9.0000E-04  9.0000E-04  9.0000E-04  9.0000E-04  9.0000E-03  9.0000E-04  9.0000E-04
       9.0000E-04  9.0000E-04  9.0000E-04  9.0000E-04  2.7000E-03  2.7000E-03  2.7000E-02  2.7000E-02  2.7000E-02  2.7000E-02
       2.7000E-02  9.0000E-03  9.0000E-03  2.7000E-02  2.7000E-02  2.7000E-02  2.7000E-02  2.7000E-02  2.7000E-02  9.0000E-03
       9.0000E-03  9.0000E-03  2.7000E-02  2.7000E-02  2.7000E-02  9.0000E-03  2.7000E-03  2.7000E-03  2.7000E-03  2.7000E-03
       2.7000E-03  2.7000E-03  2.7000E-03  2.7000E-03  2.7000E-03  2.7000E-03  2.7000E-03  9.0000E-03  9.0000E-03  9.0000E-03
       2.7000E-03  9.0000E-04  9.0000E-04   0.000       0.000       0.000       0.000       0.000       0.000    
  35    0.000       0.000       0.000       0.000       0.000       0.000       0.000       0.000       0.000       0.000    
        0.000       0.000       0.000      4.5000E-04  4.5000E-04  4.5000E-04  4.5000E-04  4.5000E-04  9.0000E-04  9.0000E-04
       9.0000E-04  9.0000E-04  9.0000E-04  9.0000E-04  9.0000E-03  9.0000E-03  9.0000E-03  9.0000E-03  9.0000E-03  9.0000E-03
       9.0000E-04  9.0000E-04  9.0000E-03  9.0000E-03  2.7000E-02  2.7000E-02  2.7000E-02  2.7000E-02  9.0000E-03  9.0000E-03
       9.0000E-03  9.0000E-03  9.0000E-03  9.0000E-03  2.7000E-02  2.7000E-02  2.7000E-02  2.7000E-02  2.7000E-02  2.7000E-02
       2.7000E-02  2.7000E-02  2.7000E-02  2.7000E-02  2.7000E-02  2.7000E-02  2.7000E-03  2.7000E-03  2.7000E-03  2.7000E-03
       2.7000E-03  2.7000E-03  2.7000E-03  2.7000E-03  2.7000E-03  2.7000E-03  2.7000E-03  9.0000E-03  9.0000E-03  2.7000E-03
       2.7000E-03  9.0000E-04  4.5000E-04  4.5000E-04   0.000       0.000       0.000       0.000       0.000    
  36    0.000       0.000       0.000       0.000       0.000       0.000       0.000       0.000       0.000       0.000    
        0.000       0.000       0.000      4.5000E-04  4.5000E-04  4.5000E-04  4.5000E-04  9.0000E-04  9.0000E-04  9.0000E-04
       9.0000E-04  9.0000E-04  9.0000E-04  9.0000E-04  9.0000E-03  9.0000E-03  9.0000E-03  9.0000E-03  2.7000E-02  2.7000E-02
       2.7000E-02  2.7000E-02  2.7000E-02  2.7000E-02  2.7000E-02  2.7000E-02  2.7000E-02  2.7000E-02  9.0000E-03  9.0000E-03
       9.0000E-03  9.0000E-03  9.0000E-03  9.0000E-03  2.7000E-02  2.7000E-02  2.7000E-02  2.7000E-02  2.7000E-02  2.7000E-02
       2.7000E-02  2.7000E-02  2.7000E-02  2.7000E-02  2.7000E-02  2.7000E-02  2.7000E-02  9.0000E-03  9.0000E-03  2.7000E-03
       2.7000E-03  2.7000E-03  9.0000E-03  9.0000E-03  2.7000E-03  2.7000E-03  2.7000E-03  9.0000E-03  9.0000E-03  2.7000E-03
       2.7000E-03  2.7000E-03  4.5000E-04  4.5000E-04  4.5000E-04   0.000       0.000       0.000       0.000    
  37    0.000       0.000       0.000       0.000       0.000       0.000       0.000       0.000       0.000       0.000    
        0.000       0.000      4.5000E-04  4.5000E-04  4.5000E-04  4.5000E-04  9.0000E-04  9.0000E-04  9.0000E-04  9.0000E-04
       9.0000E-04  9.0000E-04  9.0000E-04  9.0000E-03  2.7000E-02  2.7000E-02  2.7000E-02  2.7000E-02  2.7000E-02  2.7000E-02
       2.7000E-02  2.7000E-02  2.7000E-02  2.7000E-02  2.7000E-02  2.7000E-02  2.7000E-02  2.7000E-02  2.7000E-03  2.7000E-03
       2.7000E-03  2.7000E-03  9.0000E-03  2.7000E-02  2.7000E-02  2.7000E-02  2.7000E-02  2.7000E-02  2.7000E-02  2.7000E-02
       2.7000E-02  2.7000E-02  2.7000E-02  2.7000E-02  2.7000E-02  2.7000E-02  2.7000E-02  2.7000E-02  2.7000E-02  2.7000E-02
       2.7000E-02  2.7000E-02  9.0000E-03  9.0000E-03  9.0000E-03  9.0000E-03  9.0000E-03  9.0000E-03  9.0000E-03  9.0000E-03
       2.7000E-03  2.7000E-03  9.0000E-04  4.5000E-04  4.5000E-04   0.000       0.000       0.000       0.000    
  38    0.000       0.000       0.000       0.000       0.000       0.000       0.000       0.000       0.000       0.000    
       9.0000E-04  9.0000E-04  4.5000E-04  9.0000E-04  9.0000E-04  9.0000E-04  9.0000E-04  9.0000E-04  9.0000E-03  9.0000E-03
       9.0000E-03  9.0000E-03  9.0000E-03  9.0000E-03  9.0000E-03  2.7000E-02  2.7000E-02  2.7000E-02  9.0000E-03  9.0000E-03
       2.7000E-02  2.7000E-02  2.7000E-02  2.7000E-02  2.7000E-02  2.7000E-02  2.7000E-02  2.7000E-02  2.7000E-03  2.7000E-03
       2.7000E-03  2.7000E-03  9.0000E-03  2.7000E-02  2.7000E-02  2.7000E-02  2.7000E-03  9.0000E-03  9.0000E-03  9.0000E-03
       9.0000E-03  9.0000E-03  2.7000E-02  2.7000E-02  2.7000E-02  2.7000E-02  2.7000E-02  2.7000E-02  2.7000E-02  2.7000E-02
       2.7000E-02  2.7000E-02  2.7000E-02  2.7000E-02  2.7000E-02  2.7000E-02  2.7000E-02  2.7000E-02  2.7000E-02  9.0000E-03
       9.0000E-03  2.7000E-03  9.0000E-04  4.5000E-04  4.5000E-04  9.0000E-04   0.000       0.000       0.000    
  39    0.000       0.000       0.000       0.000       0.000       0.000       0.000      4.5000E-04  4.5000E-04  9.0000E-04
       9.0000E-04  9.0000E-04  9.0000E-04  9.0000E-04  9.0000E-03  9.0000E-03  9.0000E-03  9.0000E-03  9.0000E-03  9.0000E-03
       9.0000E-03  9.0000E-03  9.0000E-03  2.7000E-03  2.7000E-03  2.7000E-03  2.7000E-03  2.7000E-03  9.0000E-03  2.7000E-02
       2.7000E-02  2.7000E-02  2.7000E-02  2.7000E-02  2.7000E-02  2.7000E-02  2.7000E-02  2.7000E-02  2.7000E-03  2.7000E-03
       2.7000E-03  2.7000E-03  2.7000E-03  2.7000E-02  2.7000E-02  2.7000E-03  2.7000E-03  2.7000E-03  9.0000E-03  9.0000E-03
       9.0000E-03  9.0000E-03  9.0000E-03  9.0000E-03  9.0000E-03  9.0000E-03  9.0000E-03  9.0000E-03  9.0000E-03  2.7000E-02
       2.7000E-02  2.7000E-02  2.7000E-02  2.7000E-02  2.7000E-02  2.7000E-02  2.7000E-02  2.7000E-02  2.7000E-02  2.7000E-02
       2.7000E-02  2.7000E-02  9.0000E-03  9.0000E-04  9.0000E-04  8.1000E-02   0.000       0.000       0.000    
  40    0.000       0.000       0.000       0.000       0.000       0.000      4.5000E-04  4.5000E-04  4.5000E-04  9.0000E-04
       9.0000E-04  9.0000E-04  9.0000E-03  9.0000E-03  9.0000E-03  9.0000E-03  9.0000E-03  9.0000E-03  9.0000E-04  9.0000E-04
       9.0000E-04  9.0000E-04  2.7000E-03  2.7000E-03  2.7000E-03  2.7000E-03  2.7000E-03  2.7000E-03  2.7000E-02  2.7000E-02
       2.7000E-02  2.7000E-02  2.7000E-02  2.7000E-02  2.7000E-02  2.7000E-02  2.7000E-02  2.7000E-02  2.7000E-03  2.7000E-03
       2.7000E-03  2.7000E-03  2.7000E-03  2.7000E-02  2.7000E-02  2.7000E-03  2.7000E-03  2.7000E-03  2.7000E-03  9.0000E-03
       9.0000E-03  9.0000E-03  9.0000E-03  9.0000E-03  9.0000E-03  9.0000E-03  2.7000E-03  2.7000E-03  9.0000E-03  2.7000E-02
       2.7000E-02  9.0000E-03  9.0000E-03  9.0000E-03  9.0000E-03  2.7000E-02  2.7000E-02  2.7000E-02  2.7000E-02  2.7000E-02
       2.7000E-02  2.7000E-02  2.7000E-02  2.7000E-02  2.7000E-02  8.1000E-02   0.000       0.000       0.000    
  41    0.000       0.000       0.000       0.000       0.000      4.5000E-04  4.5000E-04  4.5000E-04  9.0000E-04  9.0000E-04
       9.0000E-04  9.0000E-04  9.0000E-03  9.0000E-03  9.0000E-04  9.0000E-04  9.0000E-04  9.0000E-04  9.0000E-04  9.0000E-04
       9.0000E-04  2.7000E-03  2.7000E-03  2.7000E-03  2.7000E-03  2.7000E-03  2.7000E-03  2.7000E-03  2.7000E-02  2.7000E-02
       9.0000E-03  9.0000E-03  9.0000E-03  2.7000E-02  2.7000E-02  2.7000E-02  2.7000E-02  2.7000E-02  2.7000E-03  2.7000E-03
       2.7000E-03  2.7000E-03  2.7000E-03  2.7000E-02  2.7000E-02  2.7000E-02  2.7000E-03  2.7000E-03  2.7000E-03  9.0000E-03
       9.0000E-03  9.0000E-03  9.0000E-04  9.0000E-04  9.0000E-04  9.0000E-04  2.7000E-03  2.7000E-03  2.7000E-03  2.7000E-02
       2.7000E-02  9.0000E-03  2.7000E-03  9.0000E-03  9.0000E-03  9.0000E-03  2.7000E-03  2.7000E-03  2.7000E-02  2.7000E-02
       2.7000E-02  2.7000E-02  2.7000E-02  2.7000E-02  2.7000E-02   0.000       0.000       0.000       0.000    
  42    0.000       0.000       0.000       0.000       0.000      4.5000E-04  4.5000E-04  4.5000E-04  9.0000E-04  9.0000E-04
       9.0000E-04  9.0000E-04  9.0000E-04  9.0000E-04  9.0000E-04  9.0000E-04  9.0000E-04  9.0000E-04  9.0000E-04  2.7000E-03
       2.7000E-03  2.7000E-03  2.7000E-03  2.7000E-02  2.7000E-02  2.7000E-02  2.7000E-02  2.7000E-02  2.7000E-02  9.0000E-03
       9.0000E-03  9.0000E-03  9.0000E-03  9.0000E-03  2.7000E-02  2.7000E-02  2.7000E-02  2.7000E-02  2.7000E-03  2.7000E-03
       2.7000E-03  2.7000E-03  2.7000E-03  9.0000E-03  2.7000E-02  2.7000E-02  2.7000E-03  2.7000E-03  2.7000E-03  2.7000E-03
       9.0000E-04  9.0000E-04  9.0000E-04  9.0000E-04  9.0000E-04  9.0000E-04  9.0000E-04  2.7000E-03  2.7000E-03  2.7000E-02
       2.7000E-02  9.0000E-03  2.7000E-03  2.7000E-03  2.7000E-03  2.7000E-03  2.7000E-03  2.7000E-03  2.7000E-03  9.0000E-03
       2.7000E-02  2.7000E-02  2.7000E-02  2.7000E-02  2.7000E-02   0.000       0.000       0.000       0.000    
  43    0.000       0.000       0.000       0.000       0.000      4.5000E-04  4.5000E-04  4.5000E-04  9.0000E-04  9.0000E-04
       9.0000E-04  9.0000E-04  9.0000E-04  9.0000E-04  9.0000E-04  9.0000E-04  9.0000E-04  9.0000E-04  9.0000E-04  2.7000E-03
       2.7000E-03  2.7000E-03  2.7000E-02  2.7000E-02  2.7000E-02  9.0000E-03  9.0000E-03  9.0000E-03  9.0000E-03  9.0000E-03
       9.0000E-03  9.0000E-03  9.0000E-03  9.0000E-03  2.7000E-02  2.7000E-02  2.7000E-02  2.7000E-03  2.7000E-03  2.7000E-03
       2.7000E-03  2.7000E-03  2.7000E-03  9.0000E-03  2.7000E-02  2.7000E-02  2.7000E-03  2.7000E-03  2.7000E-03  2.7000E-03
       9.0000E-04  9.0000E-04  9.0000E-04  9.0000E-04  9.0000E-04  9.0000E-04  9.0000E-04  2.7000E-03  2.7000E-03  2.7000E-02
       2.7000E-02  2.7000E-03  2.7000E-03  2.7000E-03  2.7000E-03  2.7000E-03  2.7000E-03  2.7000E-03  2.7000E-03  9.0000E-03
       2.7000E-02  2.7000E-02  2.7000E-02  2.7000E-02  9.0000E-03   0.000       0.000       0.000       0.000    
  44    0.000       0.000       0.000       0.000       0.000      4.5000E-04  4.5000E-04  4.5000E-04  4.5000E-04  9.0000E-04
       9.0000E-04  9.0000E-04  9.0000E-04  9.0000E-04  9.0000E-04  2.7000E-03  2.7000E-03  2.7000E-03  2.7000E-03  9.0000E-03
       9.0000E-03  2.7000E-02  2.7000E-02  9.0000E-03  9.0000E-03  9.0000E-03  9.0000E-03  9.0000E-03  9.0000E-03  9.0000E-03
       9.0000E-03  9.0000E-03  9.0000E-03  9.0000E-03  2.7000E-02  2.7000E-02  2.7000E-02  2.7000E-03  2.7000E-03  2.7000E-03
       2.7000E-03  2.7000E-03  9.0000E-04  9.0000E-04  2.7000E-02  2.7000E-02  2.7000E-03  2.7000E-03  2.7000E-03  2.7000E-03
       2.7000E-03  9.0000E-04  4.5000E-04  4.5000E-04  4.5000E-04  9.0000E-04  9.0000E-04  2.7000E-03  2.7000E-03  9.0000E-03
       2.7000E-02  2.7000E-03  2.7000E-03  2.7000E-03  2.7000E-03  2.7000E-03  2.7000E-03  2.7000E-03  2.7000E-03  9.0000E-03
       9.0000E-03  2.7000E-02  2.7000E-02  9.0000E-03  9.0000E-03   0.000       0.000       0.000       0.000    
  45    0.000       0.000       0.000      4.5000E-04  4.5000E-04  4.5000E-04  4.5000E-04  4.5000E-04  9.0000E-04  9.0000E-04
       9.0000E-04  9.0000E-04  9.0000E-04  9.0000E-04  9.0000E-03  9.0000E-03  9.0000E-03  9.0000E-03  9.0000E-03  2.7000E-02
       2.7000E-02  2.7000E-02  9.0000E-03  9.0000E-03  9.0000E-03  9.0000E-03  9.0000E-03  9.0000E-03  9.0000E-03  9.0000E-03
       9.0000E-03  9.0000E-03  9.0000E-03  9.0000E-03  2.7000E-02  2.7000E-02  2.7000E-02  9.0000E-03  9.0000E-04  9.0000E-04
       9.0000E-04  9.0000E-04  9.0000E-04  9.0000E-04  2.7000E-02  2.7000E-02  2.7000E-03  2.7000E-03  4.5000E-04  4.5000E-04
       4.5000E-04  4.5000E-04  4.5000E-04  4.5000E-04  4.5000E-04  9.0000E-04  9.0000E-04  2.7000E-03  2.7000E-03  9.0000E-03
       2.7000E-02  2.7000E-03  2.7000E-03  2.7000E-03  2.7000E-03  2.7000E-03  2.7000E-03  2.7000E-03  2.7000E-03  9.0000E-03
       9.0000E-03  2.7000E-02  2.7000E-02  2.7000E-03  9.0000E-04   0.000       0.000       0.000       0.000    
  46    0.000       0.000       0.000      4.5000E-04  4.5000E-04  4.5000E-04  4.5000E-04  4.5000E-04  9.0000E-04  9.0000E-04
       9.0000E-04  9.0000E-03  9.0000E-03  9.0000E-03  9.0000E-03  9.0000E-03  2.7000E-02  2.7000E-02  2.7000E-02  2.7000E-02
       2.7000E-02  9.0000E-03  9.0000E-03  9.0000E-03  9.0000E-03  9.0000E-03  9.0000E-03  9.0000E-03  9.0000E-03  9.0000E-03
       9.0000E-03  9.0000E-03  9.0000E-03  9.0000E-03  2.7000E-02  2.7000E-02  2.7000E-02  2.7000E-03  9.0000E-04  9.0000E-04
       9.0000E-04  9.0000E-04  9.0000E-04  9.0000E-04  2.7000E-02  2.7000E-02  2.7000E-03  2.7000E-03  4.5000E-04  4.5000E-04
       4.5000E-04  4.5000E-04  4.5000E-04  4.5000E-04  4.5000E-04  9.0000E-04  9.0000E-04  2.7000E-03  2.7000E-03  9.0000E-03
       9.0000E-03  2.7000E-03  2.7000E-03  2.7000E-03  2.7000E-03  2.7000E-03  2.7000E-03  2.7000E-03  2.7000E-03  9.0000E-03
       9.0000E-03  2.7000E-02  9.0000E-03  2.7000E-03  2.7000E-03   0.000       0.000       0.000       0.000    
  47    0.000       0.000       0.000      4.5000E-04  4.5000E-04  4.5000E-04  4.5000E-04  9.0000E-04  9.0000E-04  9.0000E-04
       9.0000E-04  9.0000E-03  9.0000E-03  9.0000E-03  2.7000E-02  2.7000E-02  2.7000E-02  9.0000E-03  9.0000E-03  9.0000E-03
       9.0000E-03  9.0000E-03  9.0000E-03  9.0000E-03  9.0000E-03  9.0000E-03  9.0000E-03  9.0000E-03  9.0000E-03  2.7000E-03
       9.0000E-03  9.0000E-03  9.0000E-03  9.0000E-03  2.7000E-02  2.7000E-02  2.7000E-02  2.7000E-03  9.0000E-04  9.0000E-04
       9.0000E-04  9.0000E-04  9.0000E-04  9.0000E-04  2.7000E-02  2.7000E-02  2.7000E-03  2.7000E-03  4.5000E-04  4.5000E-04
       4.5000E-04  4.5000E-04  4.5000E-04  4.5000E-04  4.5000E-04  9.0000E-04  9.0000E-04  9.0000E-04  2.7000E-03  2.7000E-03
       9.0000E-03  2.7000E-03  2.7000E-03  2.7000E-03  2.7000E-03  2.7000E-03  2.7000E-03  2.7000E-03  2.7000E-03  9.0000E-03
       9.0000E-03  2.7000E-02  9.0000E-03  2.7000E-03  2.7000E-03   0.000       0.000       0.000       0.000    
  48    0.000       0.000       0.000      4.5000E-04  4.5000E-04  4.5000E-04  4.5000E-04  9.0000E-04  9.0000E-04  9.0000E-04
       9.0000E-04  9.0000E-03  2.7000E-02  2.7000E-02  2.7000E-02  9.0000E-03  9.0000E-03  9.0000E-03  9.0000E-03  9.0000E-03
       9.0000E-03  9.0000E-03  9.0000E-03  9.0000E-03  2.7000E-03  2.7000E-03  2.7000E-03  2.7000E-03  2.7000E-03  2.7000E-03
       9.0000E-03  9.0000E-03  9.0000E-03  9.0000E-03  2.7000E-02  2.7000E-02  2.7000E-02  2.7000E-02  9.0000E-04  9.0000E-04
       9.0000E-04  9.0000E-04  9.0000E-04  9.0000E-04  2.7000E-02  2.7000E-02  2.7000E-03  2.7000E-03  2.7000E-03  4.5000E-04
       4.5000E-04  4.5000E-04  4.5000E-04  4.5000E-04  4.5000E-04  4.5000E-04  9.0000E-04  9.0000E-04  2.7000E-03  2.7000E-03
       9.0000E-03  9.0000E-03  2.7000E-03  2.7000E-03  2.7000E-03  2.7000E-03  2.7000E-03  2.7000E-03  2.7000E-03  9.0000E-03
       2.7000E-02  2.7000E-02  9.0000E-03  2.7000E-03  2.7000E-03  2.7000E-03   0.000       0.000       0.000    
  49    0.000       0.000       0.000      4.5000E-04  4.5000E-04  4.5000E-04  4.5000E-04  9.0000E-04  9.0000E-04  9.0000E-04
       9.0000E-03  2.7000E-02  2.7000E-02  9.0000E-03  9.0000E-03  9.0000E-03  9.0000E-03  9.0000E-03  9.0000E-03  2.7000E-03
       2.7000E-03  2.7000E-03  2.7000E-03  2.7000E-03  2.7000E-03  2.7000E-03  2.7000E-03  2.7000E-03  2.7000E-03  2.7000E-03
       9.0000E-03  9.0000E-03  9.0000E-03  9.0000E-03  2.7000E-02  2.7000E-02  2.7000E-02  2.7000E-02  2.7000E-02  9.0000E-04
       9.0000E-04  9.0000E-04  9.0000E-04  9.0000E-04  9.0000E-04  2.7000E-02  2.7000E-02  9.0000E-03  2.7000E-03  4.5000E-04
       4.5000E-04  4.5000E-04  4.5000E-04  4.5000E-04  4.5000E-04  4.5000E-04  9.0000E-04  9.0000E-04  2.7000E-03  2.7000E-03
       9.0000E-03  9.0000E-03  2.7000E-03  2.7000E-03  2.7000E-03  2.7000E-03  2.7000E-03  2.7000E-03  2.7000E-03  9.0000E-03
       2.7000E-02  2.7000E-02  9.0000E-03  2.7000E-03  2.7000E-03  2.7000E-03   0.000       0.000       0.000    
  50    0.000       0.000       0.000      4.5000E-04  4.5000E-04  4.5000E-04  9.0000E-04  9.0000E-04  9.0000E-04  9.0000E-04
       2.7000E-02  2.7000E-02  2.7000E-02  2.7000E-02  9.0000E-03  2.7000E-03  2.7000E-03  2.7000E-03  2.7000E-03  2.7000E-03
       2.7000E-03  2.7000E-03  2.7000E-03  2.7000E-03  2.7000E-03  2.7000E-03  2.7000E-03  2.7000E-03  2.7000E-03  2.7000E-03
       2.7000E-03  9.0000E-03  9.0000E-03  9.0000E-03  9.0000E-03  2.7000E-02  2.7000E-02  2.7000E-02  2.7000E-02  2.7000E-02
       9.0000E-04  9.0000E-04  9.0000E-04  9.0000E-04  9.0000E-04  9.0000E-04  2.7000E-02  2.7000E-02  9.0000E-03  4.5000E-04
       4.5000E-04  4.5000E-04  4.5000E-04  4.5000E-04  4.5000E-04  4.5000E-04  9.0000E-04  9.0000E-04  2.7000E-03  2.7000E-03
       9.0000E-03  9.0000E-03  2.7000E-03  2.7000E-03  2.7000E-03  2.7000E-03  2.7000E-03  2.7000E-03  2.7000E-03  9.0000E-03
       2.7000E-02  2.7000E-02  9.0000E-03  9.0000E-03  2.7000E-03  2.7000E-03   0.000       0.000       0.000    
  51    0.000       0.000       0.000      4.5000E-04  4.5000E-04  9.0000E-04  9.0000E-04  9.0000E-04  9.0000E-04  2.7000E-02
       2.7000E-02  2.7000E-02  2.7000E-02  9.0000E-03  9.0000E-03  9.0000E-04  9.0000E-04  2.7000E-03  2.7000E-03  2.7000E-03
       2.7000E-03  2.7000E-03  2.7000E-03  2.7000E-03  2.7000E-03  2.7000E-03  2.7000E-03  2.7000E-03  2.7000E-03  2.7000E-03
       2.7000E-03  9.0000E-03  9.0000E-03  9.0000E-03  9.0000E-03  2.7000E-02  2.7000E-02  2.7000E-02  2.7000E-02  2.7000E-02
       9.0000E-04  9.0000E-04  9.0000E-04  9.0000E-04  9.0000E-04  9.0000E-04  2.7000E-02  2.7000E-02  2.7000E-02  4.5000E-04
       4.5000E-04  4.5000E-04  4.5000E-04  4.5000E-04  4.5000E-04  4.5000E-04  9.0000E-04  9.0000E-04  2.7000E-03  2.7000E-03
       9.0000E-03  9.0000E-03  9.0000E-03  2.7000E-03  2.7000E-03  2.7000E-03  2.7000E-03  2.7000E-03  2.7000E-03  9.0000E-03
       2.7000E-02  2.7000E-02  9.0000E-03  9.0000E-03  2.7000E-03  2.7000E-03   0.000       0.000       0.000    
  52    0.000       0.000      4.5000E-04  4.5000E-04  4.5000E-04  9.0000E-04  9.0000E-04  9.0000E-04  9.0000E-04  2.7000E-02
       2.7000E-02  2.7000E-02  9.0000E-03  9.0000E-04  9.0000E-04  9.0000E-04  9.0000E-04  9.0000E-04  9.0000E-04  2.7000E-03
       2.7000E-03  2.7000E-03  2.7000E-03  2.7000E-03  2.7000E-03  2.7000E-03  2.7000E-03  2.7000E-03  2.7000E-03  2.7000E-03
       2.7000E-03  9.0000E-03  9.0000E-03  9.0000E-03  9.0000E-03  2.7000E-02  2.7000E-02  2.7000E-02  2.7000E-02  2.7000E-02
       9.0000E-04  9.0000E-04  9.0000E-04  9.0000E-04  9.0000E-04  9.0000E-04  9.0000E-04  2.7000E-02  2.7000E-02  4.5000E-04
       4.5000E-04  4.5000E-04  4.5000E-04  4.5000E-04  4.5000E-04  4.5000E-04  9.0000E-04  9.0000E-04  9.0000E-04  2.7000E-03
       9.0000E-03  9.0000E-03  9.0000E-03  2.7000E-03  2.7000E-03  2.7000E-03  2.7000E-03  2.7000E-03  2.7000E-03  9.0000E-03
       2.7000E-02  2.7000E-02  2.7000E-02  9.0000E-03  2.7000E-03  2.7000E-03   0.000       0.000       0.000    
  53    0.000       0.000      4.5000E-04  4.5000E-04  4.5000E-04  9.0000E-04  9.0000E-04  9.0000E-04  2.7000E-02  2.7000E-02
       2.7000E-02  9.0000E-03  9.0000E-04  9.0000E-04  9.0000E-04  9.0000E-04  9.0000E-04  9.0000E-04  9.0000E-04  9.0000E-04
       9.0000E-04  2.7000E-03  2.7000E-03  2.7000E-03  2.7000E-03  2.7000E-03  2.7000E-03  2.7000E-03  2.7000E-03  2.7000E-03
       2.7000E-03  9.0000E-03  9.0000E-03  9.0000E-03  9.0000E-03  2.7000E-02  2.7000E-02  2.7000E-02  2.7000E-02  9.0000E-04
       9.0000E-04  9.0000E-04  9.0000E-04  9.0000E-04  9.0000E-04  9.0000E-04  9.0000E-04  2.7000E-02  9.0000E-03  2.7000E-02
       4.5000E-04  4.5000E-04  4.5000E-04  4.5000E-04  4.5000E-04  4.5000E-04  4.5000E-04  9.0000E-04  9.0000E-04  2.7000E-03
       9.0000E-03  9.0000E-03  9.0000E-03  2.7000E-03  2.7000E-03  2.7000E-03  2.7000E-03  2.7000E-03  2.7000E-03  9.0000E-03
       9.0000E-03  2.7000E-02  2.7000E-02  9.0000E-03  2.7000E-03  2.7000E-03  2.7000E-03   0.000       0.000    
  54    0.000       0.000      4.5000E-04  4.5000E-04  4.5000E-04  9.0000E-04  9.0000E-04  9.0000E-04  2.7000E-02  2.7000E-02
       2.7000E-02  9.0000E-04  9.0000E-04  9.0000E-04  9.0000E-04  9.0000E-04  9.0000E-04  9.0000E-04  9.0000E-04  9.0000E-04
       9.0000E-04  2.7000E-03  2.7000E-03  2.7000E-03  2.7000E-03  2.7000E-03  2.7000E-03  2.7000E-03  2.7000E-03  2.7000E-03
       2.7000E-03  9.0000E-03  9.0000E-03  9.0000E-03  9.0000E-03  2.7000E-02  2.7000E-02  2.7000E-02  2.7000E-02  2.7000E-03
       9.0000E-04  9.0000E-04  9.0000E-04  4.5000E-04  4.5000E-04  4.5000E-04  9.0000E-04  9.0000E-03  9.0000E-03  9.0000E-03
       4.5000E-04  4.5000E-04  4.5000E-04  4.5000E-04  4.5000E-04  4.5000E-04  4.5000E-04  9.0000E-04  9.0000E-04  2.7000E-03
       9.0000E-03  9.0000E-03  9.0000E-03  2.7000E-03  2.7000E-03  2.7000E-03  2.7000E-03  2.7000E-03  2.7000E-03  9.0000E-03
       9.0000E-03  9.0000E-03  9.0000E-03  9.0000E-03  2.7000E-03  2.7000E-03  2.7000E-03   0.000       0.000    
  55    0.000      4.5000E-04  4.5000E-04  4.5000E-04  9.0000E-04  9.0000E-04  9.0000E-04  9.0000E-03  9.0000E-03  9.0000E-03
       9.0000E-03  9.0000E-04  9.0000E-04  9.0000E-04  9.0000E-04  9.0000E-04  9.0000E-04  9.0000E-04  9.0000E-04  9.0000E-04
       9.0000E-04  9.0000E-04  2.7000E-03  2.7000E-03  2.7000E-03  2.7000E-03  2.7000E-03  2.7000E-03  2.7000E-03  2.7000E-03
       2.7000E-03  2.7000E-03  9.0000E-03  9.0000E-03  9.0000E-03  2.7000E-02  2.7000E-02  2.7000E-02  2.7000E-02  2.7000E-03
       9.0000E-04  4.5000E-04  4.5000E-04  4.5000E-04  4.5000E-04  4.5000E-04  9.0000E-04  9.0000E-03  9.0000E-03  9.0000E-03
       4.5000E-04  4.5000E-04  4.5000E-04  4.5000E-04  4.5000E-04  4.5000E-04  4.5000E-04  9.0000E-04  9.0000E-04  2.7000E-03
       9.0000E-03  9.0000E-03  9.0000E-03  2.7000E-03  2.7000E-03  2.7000E-03  2.7000E-03  2.7000E-03  2.7000E-03  9.0000E-03
       9.0000E-03  9.0000E-03  9.0000E-03  9.0000E-03  9.0000E-03  2.7000E-03  2.7000E-03   0.000       0.000    
  56    0.000      4.5000E-04  4.5000E-04  9.0000E-04  9.0000E-04  9.0000E-04  9.0000E-03  9.0000E-03  9.0000E-03  9.0000E-03
       9.0000E-03  9.0000E-04  9.0000E-04  9.0000E-04  9.0000E-04  9.0000E-04  9.0000E-04  9.0000E-04  9.0000E-04  9.0000E-04
       9.0000E-04  9.0000E-04  9.0000E-04  2.7000E-03  2.7000E-03  2.7000E-03  2.7000E-03  2.7000E-03  2.7000E-03  2.7000E-03
       2.7000E-03  2.7000E-03  9.0000E-03  9.0000E-03  9.0000E-03  2.7000E-02  2.7000E-02  2.7000E-02  2.7000E-02  2.7000E-03
       9.0000E-04  4.5000E-04  4.5000E-04  4.5000E-04  4.5000E-04  4.5000E-04  9.0000E-04  9.0000E-03  9.0000E-03  9.0000E-03
       4.5000E-04  4.5000E-04  4.5000E-04  4.5000E-04  4.5000E-04  4.5000E-04  4.5000E-04  9.0000E-04  9.0000E-04  2.7000E-03
       9.0000E-03  9.0000E-03  9.0000E-03  2.7000E-03  2.7000E-03  9.0000E-04  9.0000E-04  9.0000E-04  2.7000E-03  2.7000E-03
       9.0000E-03  9.0000E-03  9.0000E-03  9.0000E-03  9.0000E-03  2.7000E-03  2.7000E-03   0.000       0.000    
  57   4.5000E-04  4.5000E-04  9.0000E-04  9.0000E-04  9.0000E-04  9.0000E-03  9.0000E-03  9.0000E-03  9.0000E-03  9.0000E-04
       9.0000E-04  9.0000E-04  9.0000E-04  9.0000E-04  9.0000E-04  9.0000E-04  9.0000E-04  9.0000E-04  9.0000E-04  9.0000E-04
       9.0000E-04  9.0000E-04  9.0000E-04  9.0000E-04  9.0000E-04  9.0000E-04  2.7000E-03  2.7000E-03  2.7000E-03  2.7000E-03
       2.7000E-03  2.7000E-03  9.0000E-03  9.0000E-03  9.0000E-03  2.7000E-02  2.7000E-02  2.7000E-02  2.7000E-03  2.7000E-03
       9.0000E-04  4.5000E-04  4.5000E-04  4.5000E-04  4.5000E-04  4.5000E-04  9.0000E-04  9.0000E-03  9.0000E-03  9.0000E-03
       4.5000E-04  4.5000E-04  4.5000E-04  4.5000E-04  4.5000E-04  4.5000E-04  4.5000E-04  9.0000E-04  9.0000E-04  9.0000E-04
       2.7000E-03  9.0000E-03  9.0000E-03  2.7000E-03  2.7000E-03  9.0000E-04  9.0000E-04  9.0000E-04  2.7000E-03  2.7000E-03
       9.0000E-03  9.0000E-03  2.7000E-03  2.7000E-03  2.7000E-03  2.7000E-03  2.7000E-03   0.000       0.000    
  58   4.5000E-04  4.5000E-04  9.0000E-04  9.0000E-04  9.0000E-04  9.0000E-03  9.0000E-04  9.0000E-04  9.0000E-04  9.0000E-04
       9.0000E-04  9.0000E-04  9.0000E-04  9.0000E-04  9.0000E-04  9.0000E-04  4.5000E-04  9.0000E-04  9.0000E-04  9.0000E-04
       9.0000E-04  9.0000E-04  9.0000E-04  9.0000E-04  9.0000E-04  9.0000E-04  9.0000E-04  2.7000E-03  2.7000E-03  2.7000E-03
       2.7000E-03  2.7000E-03  9.0000E-03  9.0000E-03  9.0000E-03  2.7000E-02  2.7000E-02  2.7000E-02  2.7000E-03  2.7000E-03
       9.0000E-04  4.5000E-04  4.5000E-04  4.5000E-04  4.5000E-04  4.5000E-04  4.5000E-04  9.0000E-04  9.0000E-03  9.0000E-03
       9.0000E-03  2.7000E-03  9.0000E-04  4.5000E-04  4.5000E-04  4.5000E-04  4.5000E-04  9.0000E-04  9.0000E-04  9.0000E-04
       2.7000E-03  9.0000E-03  2.7000E-03  2.7000E-03  2.7000E-03  9.0000E-04  9.0000E-04  9.0000E-04  2.7000E-03  9.0000E-03
       9.0000E-03  9.0000E-03  2.7000E-03  2.7000E-03  2.7000E-03  2.7000E-03  2.7000E-03   0.000       0.000    
  59   4.5000E-04  4.5000E-04  9.0000E-04  9.0000E-04  9.0000E-04  9.0000E-04  9.0000E-04  9.0000E-04  9.0000E-04  9.0000E-04
       9.0000E-04  4.5000E-04  4.5000E-04  4.5000E-04  4.5000E-04  4.5000E-04  4.5000E-04  9.0000E-04  9.0000E-04  9.0000E-04
       9.0000E-04  9.0000E-04  9.0000E-04  9.0000E-04  9.0000E-04  9.0000E-04  9.0000E-04  9.0000E-04  2.7000E-03  2.7000E-03
       2.7000E-03  2.7000E-03  9.0000E-03  9.0000E-03  9.0000E-03  9.0000E-03  2.7000E-02  2.7000E-02  2.7000E-02  2.7000E-03
       9.0000E-04  9.0000E-04  4.5000E-04  4.5000E-04  4.5000E-04  4.5000E-04  4.5000E-04  9.0000E-04  9.0000E-03  9.0000E-04
       9.0000E-03  2.7000E-03  9.0000E-04  4.5000E-04  4.5000E-04  4.5000E-04  4.5000E-04  9.0000E-04  9.0000E-04  9.0000E-04
       2.7000E-03  2.7000E-03  2.7000E-03  9.0000E-04  9.0000E-04  9.0000E-04  9.0000E-04  9.0000E-04  2.7000E-03  9.0000E-03
       9.0000E-03  9.0000E-03  2.7000E-03  2.7000E-03  2.7000E-03  2.7000E-03  2.7000E-03  2.7000E-03   0.000    
  60    0.000      4.5000E-04  4.5000E-04  9.0000E-04  9.0000E-04  9.0000E-04  4.5000E-04  4.5000E-04  4.5000E-04  4.5000E-04
       4.5000E-04  4.5000E-04  4.5000E-04   0.000       0.000       0.000      4.5000E-04  4.5000E-04  9.0000E-04  9.0000E-04
       9.0000E-04  9.0000E-04  9.0000E-04  9.0000E-04  9.0000E-04  9.0000E-04  9.0000E-04  9.0000E-04  9.0000E-04  2.7000E-03
       2.7000E-03  2.7000E-03  2.7000E-03  9.0000E-03  9.0000E-03  9.0000E-03  2.7000E-02  2.7000E-02  2.7000E-02  2.7000E-03
       9.0000E-04  9.0000E-04  4.5000E-04  4.5000E-04  4.5000E-04  4.5000E-04  4.5000E-04  9.0000E-04  9.0000E-04  9.0000E-04
       9.0000E-03  2.7000E-03  9.0000E-04  4.5000E-04  9.0000E-04  9.0000E-04  9.0000E-04  9.0000E-04  9.0000E-04  2.7000E-03
       2.7000E-03  2.7000E-03  9.0000E-04  9.0000E-04  9.0000E-04  9.0000E-04  9.0000E-04  9.0000E-04  2.7000E-03  9.0000E-03
       9.0000E-03  2.7000E-03  2.7000E-03  2.7000E-03  2.7000E-03  2.7000E-03  2.7000E-03  2.7000E-03  2.7000E-03
  61    0.000       0.000      4.5000E-04  4.5000E-04  4.5000E-04  4.5000E-04  4.5000E-04  4.5000E-04  4.5000E-04  4.5000E-04
       4.5000E-04   0.000       0.000       0.000       0.000       0.000       0.000      4.5000E-04  4.5000E-04  9.0000E-04
       9.0000E-04  9.0000E-04  9.0000E-04  9.0000E-04  9.0000E-04  9.0000E-04  9.0000E-04  9.0000E-04  9.0000E-04  9.0000E-04
       2.7000E-03  2.7000E-03  2.7000E-03  9.0000E-03  9.0000E-03  9.0000E-03  2.7000E-02  2.7000E-02  2.7000E-02  2.7000E-03
       9.0000E-04  9.0000E-04  4.5000E-04  4.5000E-04  4.5000E-04  4.5000E-04  4.5000E-04  4.5000E-04  9.0000E-04  9.0000E-04
       9.0000E-03  9.0000E-03  9.0000E-04  9.0000E-04  9.0000E-04  9.0000E-04  9.0000E-04  9.0000E-04  9.0000E-04  9.0000E-04
       9.0000E-04  9.0000E-04  9.0000E-04  9.0000E-04  9.0000E-04  9.0000E-04  9.0000E-04  9.0000E-04  2.7000E-03  9.0000E-03
       9.0000E-03  2.7000E-03  2.7000E-03  2.7000E-03  2.7000E-03  2.7000E-03  2.7000E-03  2.7000E-03  2.7000E-03
  62    0.000       0.000       0.000      4.5000E-04   0.000       0.000       0.000       0.000       0.000       0.000    
        0.000       0.000       0.000       0.000       0.000       0.000       0.000       0.000       0.000      4.5000E-04
       9.0000E-04  9.0000E-04  9.0000E-04  9.0000E-04  9.0000E-04  9.0000E-04  9.0000E-04  9.0000E-04  9.0000E-04  9.0000E-04
       2.7000E-03  2.7000E-03  2.7000E-03  9.0000E-03  9.0000E-03  9.0000E-03  2.7000E-02  2.7000E-02  9.0000E-03  2.7000E-03
       9.0000E-04  9.0000E-04  4.5000E-04  4.5000E-04  4.5000E-04  4.5000E-04  4.5000E-04  4.5000E-04  9.0000E-04  9.0000E-04
       9.0000E-04  9.0000E-04  9.0000E-03  9.0000E-04  9.0000E-04  9.0000E-04  9.0000E-04  9.0000E-04  9.0000E-04  9.0000E-04
       9.0000E-04  9.0000E-04  9.0000E-04  9.0000E-04  9.0000E-04  9.0000E-04  9.0000E-04  9.0000E-04  2.7000E-03  9.0000E-03
       2.7000E-03  2.7000E-03  2.7000E-03  2.7000E-03  2.7000E-03  2.7000E-03  2.7000E-03  9.0000E-04  9.0000E-04
  63    0.000       0.000       0.000       0.000       0.000       0.000       0.000       0.000       0.000       0.000    
        0.000       0.000       0.000       0.000       0.000       0.000       0.000       0.000       0.000      4.5000E-04
       4.5000E-04  4.5000E-04  9.0000E-04  9.0000E-04  9.0000E-04  9.0000E-04  9.0000E-04  9.0000E-04  9.0000E-04  9.0000E-04
       9.0000E-04  2.7000E-03  2.7000E-03  9.0000E-03  9.0000E-03  9.0000E-03  2.7000E-02  2.7000E-02  9.0000E-03  2.7000E-03
       2.7000E-03  9.0000E-04  9.0000E-04  4.5000E-04  4.5000E-04  4.5000E-04  4.5000E-04  4.5000E-04  4.5000E-04  4.5000E-04
       9.0000E-04  9.0000E-04  9.0000E-03  9.0000E-03  9.0000E-04  9.0000E-04  9.0000E-04  9.0000E-04  9.0000E-04  9.0000E-04
       9.0000E-04  9.0000E-04  9.0000E-04  9.0000E-04  9.0000E-04  9.0000E-04  9.0000E-04  9.0000E-04  2.7000E-03  2.7000E-03
       2.7000E-03  2.7000E-03  2.7000E-03  2.7000E-03  2.7000E-03  2.7000E-03  2.7000E-03  9.0000E-04  9.0000E-04
  64    0.000       0.000       0.000       0.000       0.000       0.000       0.000       0.000       0.000       0.000    
        0.000       0.000       0.000       0.000       0.000       0.000       0.000       0.000       0.000       0.000    
        0.000       0.000       0.000       0.000      9.0000E-04  9.0000E-04  9.0000E-04  9.0000E-04  9.0000E-04  9.0000E-04
       9.0000E-04  9.0000E-04  2.7000E-03  2.7000E-03  9.0000E-03  9.0000E-03  9.0000E-03  2.7000E-02  2.7000E-02  9.0000E-03
       9.0000E-04  9.0000E-04  9.0000E-04  4.5000E-04  4.5000E-04  4.5000E-04  4.5000E-04  4.5000E-04  4.5000E-04  4.5000E-04
       9.0000E-04  9.0000E-04  2.7000E-03  9.0000E-03  9.0000E-04  9.0000E-04  9.0000E-04  9.0000E-04  9.0000E-04  9.0000E-04
       9.0000E-04  9.0000E-04  9.0000E-04  9.0000E-04  9.0000E-04  9.0000E-04  9.0000E-04  2.7000E-03  2.7000E-03  2.7000E-03
       2.7000E-03  2.7000E-03  2.7000E-03  2.7000E-03  2.7000E-03  2.7000E-03  9.0000E-04  9.0000E-04  9.0000E-04
  65    0.000       0.000       0.000       0.000       0.000       0.000       0.000       0.000       0.000       0.000    
        0.000       0.000       0.000       0.000       0.000       0.000       0.000       0.000       0.000       0.000    
        0.000       0.000       0.000       0.000       0.000       0.000       0.000       0.000       0.000       0.000    
        0.000       0.000       0.000      2.7000E-03  9.0000E-03  9.0000E-03  9.0000E-03  9.0000E-03  9.0000E-03  9.0000E-03
       9.0000E-04  9.0000E-04  9.0000E-04  4.5000E-04  4.5000E-04   0.000       0.000       0.000       0.000      4.5000E-04
       4.5000E-04  9.0000E-04  2.7000E-03  2.7000E-03  9.0000E-04  9.0000E-04  9.0000E-04  9.0000E-04  9.0000E-04  9.0000E-04
       9.0000E-04  9.0000E-04  9.0000E-04  9.0000E-04  9.0000E-04  9.0000E-04  9.0000E-04  2.7000E-03  2.7000E-03  2.7000E-03
       2.7000E-03  2.7000E-03  2.7000E-03  2.7000E-03  2.7000E-03  2.7000E-03  2.7000E-03  9.0000E-04  9.0000E-04
  66    0.000       0.000       0.000       0.000       0.000       0.000       0.000       0.000       0.000       0.000    
        0.000       0.000       0.000       0.000       0.000       0.000       0.000       0.000       0.000       0.000    
        0.000       0.000       0.000       0.000       0.000       0.000       0.000       0.000       0.000       0.000    
        0.000       0.000       0.000       0.000       0.000      2.7000E-03  2.7000E-03   0.000       0.000       0.000    
        0.000       0.000       0.000       0.000       0.000       0.000       0.000       0.000       0.000       0.000    
       4.5000E-04  9.0000E-04  2.7000E-03  2.7000E-03  2.7000E-03  9.0000E-04  9.0000E-04  9.0000E-04  9.0000E-04  9.0000E-04
       9.0000E-04  9.0000E-04  9.0000E-04  9.0000E-04  9.0000E-04  9.0000E-04  9.0000E-04  9.0000E-04  2.7000E-03  2.7000E-03
       2.7000E-03  2.7000E-03  2.7000E-03  2.7000E-03  2.7000E-03  2.7000E-03  2.7000E-03  9.0000E-04  9.0000E-04
  67    0.000       0.000       0.000       0.000       0.000       0.000       0.000       0.000       0.000       0.000    
        0.000       0.000       0.000       0.000       0.000       0.000       0.000       0.000       0.000       0.000    
        0.000       0.000       0.000       0.000       0.000       0.000       0.000       0.000       0.000       0.000    
        0.000       0.000       0.000       0.000       0.000       0.000       0.000       0.000       0.000       0.000    
        0.000       0.000       0.000       0.000       0.000       0.000       0.000       0.000       0.000       0.000    
        0.000       0.000      4.5000E-04  2.7000E-03  9.0000E-04  9.0000E-04  9.0000E-04  9.0000E-04  9.0000E-04  4.5000E-04
       4.5000E-04  4.5000E-04  4.5000E-04  4.5000E-04  9.0000E-04  9.0000E-04  9.0000E-04  9.0000E-04  2.7000E-03  2.7000E-03
       2.7000E-03   0.000       0.000       0.000       0.000       0.000       0.000       0.000       0.000    
  68    0.000       0.000       0.000       0.000       0.000       0.000       0.000       0.000       0.000       0.000    
        0.000       0.000       0.000       0.000       0.000       0.000       0.000       0.000       0.000       0.000    
        0.000       0.000       0.000       0.000       0.000       0.000       0.000       0.000       0.000       0.000    
        0.000       0.000       0.000       0.000       0.000       0.000       0.000       0.000       0.000       0.000    
        0.000       0.000       0.000       0.000       0.000       0.000       0.000       0.000       0.000       0.000    
        0.000       0.000       0.000      4.5000E-04  9.0000E-04  9.0000E-04  9.0000E-04  4.5000E-04  4.5000E-04  4.5000E-04
       4.5000E-04  4.5000E-04  4.5000E-04  4.5000E-04  9.0000E-04  9.0000E-04  9.0000E-04  2.7000E-03   0.000       0.000    
        0.000       0.000       0.000       0.000       0.000       0.000       0.000       0.000       0.000    
  69    0.000       0.000       0.000       0.000       0.000       0.000       0.000       0.000       0.000       0.000    
        0.000       0.000       0.000       0.000       0.000       0.000       0.000       0.000       0.000       0.000    
        0.000       0.000       0.000       0.000       0.000       0.000       0.000       0.000       0.000       0.000    
        0.000       0.000       0.000       0.000       0.000       0.000       0.000       0.000       0.000       0.000    
        0.000       0.000       0.000       0.000       0.000       0.000       0.000       0.000       0.000       0.000    
        0.000       0.000       0.000       0.000       0.000       0.000       0.000       0.000       0.000       0.000    
       4.5000E-04  4.5000E-04  4.5000E-04  4.5000E-04  2.7000E-03  2.7000E-03  2.7000E-03   0.000       0.000       0.000    
        0.000       0.000       0.000       0.000       0.000       0.000       0.000       0.000       0.000    
  70    0.000       0.000       0.000       0.000       0.000       0.000       0.000       0.000       0.000       0.000    
        0.000       0.000       0.000       0.000       0.000       0.000       0.000       0.000       0.000       0.000    
        0.000       0.000       0.000       0.000       0.000       0.000       0.000       0.000       0.000       0.000    
        0.000       0.000       0.000       0.000       0.000       0.000       0.000       0.000       0.000       0.000    
        0.000       0.000       0.000       0.000       0.000       0.000       0.000       0.000       0.000       0.000    
        0.000       0.000       0.000       0.000       0.000       0.000       0.000       0.000       0.000       0.000    
        0.000      4.5000E-04  4.5000E-04  4.5000E-04  2.7000E-03  2.7000E-03   0.000       0.000       0.000       0.000    
        0.000       0.000       0.000       0.000       0.000       0.000       0.000       0.000       0.000    
  71    0.000       0.000       0.000       0.000       0.000       0.000       0.000       0.000       0.000       0.000    
        0.000       0.000       0.000       0.000       0.000       0.000       0.000       0.000       0.000       0.000    
        0.000       0.000       0.000       0.000       0.000       0.000       0.000       0.000       0.000       0.000    
        0.000       0.000       0.000       0.000       0.000       0.000       0.000       0.000       0.000       0.000    
        0.000       0.000       0.000       0.000       0.000       0.000       0.000       0.000       0.000       0.000    
        0.000       0.000       0.000       0.000       0.000       0.000       0.000       0.000       0.000       0.000    
        0.000       0.000      4.5000E-04  9.0000E-04   0.000       0.000       0.000       0.000       0.000       0.000    
        0.000       0.000       0.000       0.000       0.000       0.000       0.000       0.000       0.000    

         SPECIFIC STORAGE =  2.000000E-06 FOR LAYER   2

 SFR7 -- STREAMFLOW ROUTING PACKAGE, VERSION 1.0.5, 2012-04-05
         INPUT READ FROM UNIT  15
 #NAD83 Sagehen-GRID SFR2
 #NSTRM NSS NSFRPAR NPARSEG   CONST  DLEAK ISTCB1  ISTCB2 [ISFROPT] [NSTRAIL] [ISUZN] [NSFRSETS] [IRTFLG]
 #KRCH IRCH JRCH ISEG IREACH       RCHLEN [STRTOP]       [SLOPE] [STRTHICK] [STRHC1] [THTS] [THTI] [EPS] [UHC]
 No named parameters

 PROCESSING SFR2 OPTIONS

  Some stream information will be read by reach. This option replaces NSTRM<0
          2 Specified inflow files will be read with a maximum of       1857 row entries per file

 END PROCESSING SFR2 OPTIONS



 NUMBER OF STREAM REACHES IS  191

 NUMBER OF STREAM SEGMENTS IS   19

 NUMBER OF STREAM PARAMETERS IS    0

 NUMBER OF STREAM SEGMENTS DEFINED USING PARAMETERS IS              0

 MAXIMUM ERROR FOR STREAM LEAKAGE RATES IS  1.00E-04

 CONSTANT FOR MANNINGS EQUATION IS  8.6400E+04





 OPTION FOR UNSATURATED FLOW BENEATH STREAMBEDS IS ACTIVE 




   STREAM NETWORK DESCRIPTION: 

   LAYER  ROW   COL SEGMENT  REACH   LENGTH     STREAMBED   STREAMBED   STREAMBED  STREAMBED    SATURATED    INITIAL    RESIDUAL  BROOKS/COREY  SAT. VERT.
                    NUMBER  NUMBER  IN CELL     TOP ELEV.     SLOPE     THICKNESS  HYD. COND.   WAT.CONT.   WAT.CONT.   WAT.CONT.    EPSILON    HYD. COND.        
   -------------------------------------------------------------------------------------------------------------------------------------------------------
     1    18    62     1       1   1.2728E+02  2.0730E+03  7.8567E-02  1.0000E+00  5.0000E+00  0.3000E+00  0.2000E+00  0.1500E+00  3.5000E+00  3.0000E-01
     1    19    63     1       2   1.2728E+02  2.0630E+03  7.4639E-02  1.0000E+00  5.0000E+00  0.3000E+00  0.2000E+00  0.1500E+00  3.5000E+00  3.0000E-01
     1    20    64     1       3   1.0864E+02  2.0540E+03  5.5228E-02  1.0000E+00  5.0000E+00  0.3000E+00  0.2000E+00  0.1500E+00  3.5000E+00  3.0000E-01
     1    21    64     1       4   1.0864E+02  2.0510E+03  2.7614E-02  1.0000E+00  5.0000E+00  0.3000E+00  0.2000E+00  0.1500E+00  3.5000E+00  3.0000E-01
     1    22    65     1       5   6.3640E+01  2.0480E+03  4.7140E-02  1.0000E+00  5.0000E+00  0.3000E+00  0.2000E+00  0.1500E+00  3.5000E+00  3.0000E-01
     1    20    66     2       1   1.2728E+02  2.0530E+03  2.3570E-02  1.0000E+00  5.0000E+00  0.3000E+00  0.2000E+00  0.1500E+00  3.5000E+00  3.0000E-01
     1    21    65     2       2   1.0864E+02  2.0510E+03  2.3012E-02  1.0000E+00  5.0000E+00  0.3000E+00  0.2000E+00  0.1500E+00  3.5000E+00  3.0000E-01
     1    22    65     2       3   4.5000E+01  2.0480E+03  6.6667E-02  1.0000E+00  5.0000E+00  0.3000E+00  0.2000E+00  0.1500E+00  3.5000E+00  3.0000E-01
     1    22    65     3       1   4.5000E+01  2.0480E+03  6.6667E-02  1.0000E+00  5.0000E+00  0.3000E+00  0.2000E+00  0.1500E+00  3.5000E+00  3.0000E-01
     1    23    65     3       2   1.0864E+02  2.0450E+03  1.3807E-02  1.0000E+00  5.0000E+00  0.3000E+00  0.2000E+00  0.1500E+00  3.5000E+00  3.0000E-01
     1    24    66     3       3   1.2728E+02  2.0450E+03  1.0000E-07  1.0000E+00  5.0000E+00  0.3000E+00  0.2000E+00  0.1500E+00  3.5000E+00  3.0000E-01
     1    25    67     3       4   1.2728E+02  2.0450E+03  1.1785E-02  1.0000E+00  5.0000E+00  0.3000E+00  0.2000E+00  0.1500E+00  3.5000E+00  3.0000E-01
     1    26    68     3       5   1.0864E+02  2.0420E+03  1.8409E-02  1.0000E+00  5.0000E+00  0.3000E+00  0.2000E+00  0.1500E+00  3.5000E+00  3.0000E-01
     1    27    68     3       6   1.0864E+02  2.0410E+03  2.7614E-02  1.0000E+00  5.0000E+00  0.3000E+00  0.2000E+00  0.1500E+00  3.5000E+00  3.0000E-01
     1    28    69     3       7   1.0864E+02  2.0360E+03  5.5228E-02  1.0000E+00  5.0000E+00  0.3000E+00  0.2000E+00  0.1500E+00  3.5000E+00  3.0000E-01
     1    29    69     3       8   9.0000E+01  2.0290E+03  7.2222E-02  1.0000E+00  5.0000E+00  0.3000E+00  0.2000E+00  0.1500E+00  3.5000E+00  3.0000E-01
     1    30    69     3       9   1.0864E+02  2.0230E+03  8.2843E-02  1.0000E+00  5.0000E+00  0.3000E+00  0.2000E+00  0.1500E+00  3.5000E+00  3.0000E-01
     1    31    70     3      10   1.0864E+02  2.0110E+03  8.2843E-02  1.0000E+00  5.0000E+00  0.3000E+00  0.2000E+00  0.1500E+00  3.5000E+00  3.0000E-01
     1    32    70     3      11   9.0000E+01  2.0050E+03  4.4444E-02  1.0000E+00  5.0000E+00  0.3000E+00  0.2000E+00  0.1500E+00  3.5000E+00  3.0000E-01
     1    33    70     3      12   1.0864E+02  2.0030E+03  8.7445E-02  1.0000E+00  5.0000E+00  0.3000E+00  0.2000E+00  0.1500E+00  3.5000E+00  3.0000E-01
     1    34    69     3      13   1.0864E+02  1.9860E+03  1.3807E-01  1.0000E+00  5.0000E+00  0.3000E+00  0.2000E+00  0.1500E+00  3.5000E+00  3.0000E-01
     1    35    69     3      14   9.0000E+01  1.9730E+03  1.0556E-01  1.0000E+00  5.0000E+00  0.3000E+00  0.2000E+00  0.1500E+00  3.5000E+00  3.0000E-01
     1    36    69     3      15   9.0000E+01  1.9670E+03  7.7778E-02  1.0000E+00  5.0000E+00  0.3000E+00  0.2000E+00  0.1500E+00  3.5000E+00  3.0000E-01
     1    37    69     3      16   9.0000E+01  1.9590E+03  7.7778E-02  1.0000E+00  5.0000E+00  0.3000E+00  0.2000E+00  0.1500E+00  3.5000E+00  3.0000E-01
     1    38    69     3      17   1.0864E+02  1.9530E+03  5.9831E-02  1.0000E+00  5.0000E+00  0.3000E+00  0.2000E+00  0.1500E+00  3.5000E+00  3.0000E-01
     1    39    70     3      18   6.3640E+01  1.9460E+03  8.6424E-02  1.0000E+00  5.0000E+00  0.3000E+00  0.2000E+00  0.1500E+00  3.5000E+00  3.0000E-01
     1    25    49     4       1   1.2728E+02  2.0350E+03  8.2496E-02  1.0000E+00  5.0000E+00  0.3000E+00  0.2000E+00  0.1500E+00  3.5000E+00  3.0000E-01
     1    26    50     4       2   1.2728E+02  2.0260E+03  6.2854E-02  1.0000E+00  5.0000E+00  0.3000E+00  0.2000E+00  0.1500E+00  3.5000E+00  3.0000E-01
     1    27    51     4       3   1.0864E+02  2.0190E+03  5.5228E-02  1.0000E+00  5.0000E+00  0.3000E+00  0.2000E+00  0.1500E+00  3.5000E+00  3.0000E-01
     1    28    51     4       4   1.0864E+02  2.0140E+03  4.6024E-02  1.0000E+00  5.0000E+00  0.3000E+00  0.2000E+00  0.1500E+00  3.5000E+00  3.0000E-01
     1    29    52     4       5   1.0864E+02  2.0090E+03  4.6024E-02  1.0000E+00  5.0000E+00  0.3000E+00  0.2000E+00  0.1500E+00  3.5000E+00  3.0000E-01
     1    30    52     4       6   9.0000E+01  2.0040E+03  5.5556E-02  1.0000E+00  5.0000E+00  0.3000E+00  0.2000E+00  0.1500E+00  3.5000E+00  3.0000E-01
     1    31    52     4       7   9.0000E+01  1.9990E+03  3.8889E-02  1.0000E+00  5.0000E+00  0.3000E+00  0.2000E+00  0.1500E+00  3.5000E+00  3.0000E-01
     1    32    52     4       8   1.0864E+02  1.9970E+03  3.6819E-02  1.0000E+00  5.0000E+00  0.3000E+00  0.2000E+00  0.1500E+00  3.5000E+00  3.0000E-01
     1    33    53     4       9   1.2728E+02  1.9910E+03  3.9284E-02  1.0000E+00  5.0000E+00  0.3000E+00  0.2000E+00  0.1500E+00  3.5000E+00  3.0000E-01
     1    34    54     4      10   1.2728E+02  1.9870E+03  3.5355E-02  1.0000E+00  5.0000E+00  0.3000E+00  0.2000E+00  0.1500E+00  3.5000E+00  3.0000E-01
     1    35    55     4      11   1.0864E+02  1.9820E+03  5.0626E-02  1.0000E+00  5.0000E+00  0.3000E+00  0.2000E+00  0.1500E+00  3.5000E+00  3.0000E-01
     1    36    55     4      12   4.5000E+01  1.9760E+03  7.7778E-02  1.0000E+00  5.0000E+00  0.3000E+00  0.2000E+00  0.1500E+00  3.5000E+00  3.0000E-01
     1    35    37     5       1   6.3640E+01  2.0540E+03  1.2571E-01  1.0000E+00  5.0000E+00  0.3000E+00  0.2000E+00  0.1500E+00  3.5000E+00  3.0000E-01
     1    34    38     5       2   1.2728E+02  2.0460E+03  6.2854E-02  1.0000E+00  5.0000E+00  0.3000E+00  0.2000E+00  0.1500E+00  3.5000E+00  3.0000E-01
     1    33    39     5       3   1.2728E+02  2.0380E+03  3.5355E-02  1.0000E+00  5.0000E+00  0.3000E+00  0.2000E+00  0.1500E+00  3.5000E+00  3.0000E-01
     1    32    40     5       4   1.0864E+02  2.0370E+03  3.6819E-02  1.0000E+00  5.0000E+00  0.3000E+00  0.2000E+00  0.1500E+00  3.5000E+00  3.0000E-01
     1    32    41     5       5   9.0000E+01  2.0300E+03  6.6667E-02  1.0000E+00  5.0000E+00  0.3000E+00  0.2000E+00  0.1500E+00  3.5000E+00  3.0000E-01
     1    32    42     5       6   9.0000E+01  2.0250E+03  3.8889E-02  1.0000E+00  5.0000E+00  0.3000E+00  0.2000E+00  0.1500E+00  3.5000E+00  3.0000E-01
     1    32    43     5       7   1.0864E+02  2.0230E+03  2.7614E-02  1.0000E+00  5.0000E+00  0.3000E+00  0.2000E+00  0.1500E+00  3.5000E+00  3.0000E-01
     1    33    44     5       8   1.2728E+02  2.0190E+03  2.7499E-02  1.0000E+00  5.0000E+00  0.3000E+00  0.2000E+00  0.1500E+00  3.5000E+00  3.0000E-01
     1    34    45     5       9   1.0864E+02  2.0160E+03  3.6819E-02  1.0000E+00  5.0000E+00  0.3000E+00  0.2000E+00  0.1500E+00  3.5000E+00  3.0000E-01
     1    34    46     5      10   9.0000E+01  2.0110E+03  5.0000E-02  1.0000E+00  5.0000E+00  0.3000E+00  0.2000E+00  0.1500E+00  3.5000E+00  3.0000E-01
     1    34    47     5      11   4.5000E+01  2.0070E+03  1.1111E-01  1.0000E+00  5.0000E+00  0.3000E+00  0.2000E+00  0.1500E+00  3.5000E+00  3.0000E-01
     1    34    47     6       1   4.5000E+01  2.0070E+03  1.4444E-01  1.0000E+00  5.0000E+00  0.3000E+00  0.2000E+00  0.1500E+00  3.5000E+00  3.0000E-01
     1    34    48     6       2   1.0864E+02  2.0010E+03  5.9831E-02  1.0000E+00  5.0000E+00  0.3000E+00  0.2000E+00  0.1500E+00  3.5000E+00  3.0000E-01
     1    35    49     6       3   1.0864E+02  1.9940E+03  5.0626E-02  1.0000E+00  5.0000E+00  0.3000E+00  0.2000E+00  0.1500E+00  3.5000E+00  3.0000E-01
     1    35    50     6       4   9.0000E+01  1.9900E+03  2.7778E-02  1.0000E+00  5.0000E+00  0.3000E+00  0.2000E+00  0.1500E+00  3.5000E+00  3.0000E-01
     1    35    51     6       5   1.0864E+02  1.9890E+03  2.7614E-02  1.0000E+00  5.0000E+00  0.3000E+00  0.2000E+00  0.1500E+00  3.5000E+00  3.0000E-01
     1    36    52     6       6   1.0864E+02  1.9840E+03  4.1421E-02  1.0000E+00  5.0000E+00  0.3000E+00  0.2000E+00  0.1500E+00  3.5000E+00  3.0000E-01
     1    36    53     6       7   1.0864E+02  1.9800E+03  1.8409E-02  1.0000E+00  5.0000E+00  0.3000E+00  0.2000E+00  0.1500E+00  3.5000E+00  3.0000E-01
     1    37    54     6       8   1.2728E+02  1.9800E+03  1.5713E-02  1.0000E+00  5.0000E+00  0.3000E+00  0.2000E+00  0.1500E+00  3.5000E+00  3.0000E-01
     1    36    55     6       9   6.3640E+01  1.9760E+03  3.9284E-02  1.0000E+00  5.0000E+00  0.3000E+00  0.2000E+00  0.1500E+00  3.5000E+00  3.0000E-01
     1    36    34     7       1   6.3640E+01  2.0770E+03  1.7285E-01  1.0000E+00  5.0000E+00  0.3000E+00  0.2000E+00  0.1500E+00  3.5000E+00  3.0000E-01
     1    35    35     7       2   1.0864E+02  2.0670E+03  6.9036E-02  1.0000E+00  5.0000E+00  0.3000E+00  0.2000E+00  0.1500E+00  3.5000E+00  3.0000E-01
     1    35    36     7       3   9.0000E+01  2.0620E+03  7.2222E-02  1.0000E+00  5.0000E+00  0.3000E+00  0.2000E+00  0.1500E+00  3.5000E+00  3.0000E-01
     1    35    37     7       4   4.5000E+01  2.0540E+03  1.7778E-01  1.0000E+00  5.0000E+00  0.3000E+00  0.2000E+00  0.1500E+00  3.5000E+00  3.0000E-01
     1    52    49     8       1   1.2728E+02  2.1210E+03  7.4639E-02  1.0000E+00  5.0000E+00  0.3000E+00  0.2000E+00  0.1500E+00  3.5000E+00  3.0000E-01
     1    51    48     8       2   1.2728E+02  2.1170E+03  1.5713E-02  1.0000E+00  5.0000E+00  0.3000E+00  0.2000E+00  0.1500E+00  3.5000E+00  3.0000E-01
     1    50    47     8       3   1.0864E+02  2.1170E+03  3.6819E-02  1.0000E+00  5.0000E+00  0.3000E+00  0.2000E+00  0.1500E+00  3.5000E+00  3.0000E-01
     1    49    47     8       4   1.0864E+02  2.1090E+03  4.6024E-02  1.0000E+00  5.0000E+00  0.3000E+00  0.2000E+00  0.1500E+00  3.5000E+00  3.0000E-01
     1    48    46     8       5   1.0864E+02  2.1070E+03  1.8409E-02  1.0000E+00  5.0000E+00  0.3000E+00  0.2000E+00  0.1500E+00  3.5000E+00  3.0000E-01
     1    47    46     8       6   9.0000E+01  2.1050E+03  2.2222E-02  1.0000E+00  5.0000E+00  0.3000E+00  0.2000E+00  0.1500E+00  3.5000E+00  3.0000E-01
     1    46    46     8       7   9.0000E+01  2.1030E+03  3.3333E-02  1.0000E+00  5.0000E+00  0.3000E+00  0.2000E+00  0.1500E+00  3.5000E+00  3.0000E-01
     1    45    46     8       8   9.0000E+01  2.0990E+03  6.6667E-02  1.0000E+00  5.0000E+00  0.3000E+00  0.2000E+00  0.1500E+00  3.5000E+00  3.0000E-01
     1    44    46     8       9   9.0000E+01  2.0910E+03  1.0556E-01  1.0000E+00  5.0000E+00  0.3000E+00  0.2000E+00  0.1500E+00  3.5000E+00  3.0000E-01
     1    43    46     8      10   9.0000E+01  2.0800E+03  1.0556E-01  1.0000E+00  5.0000E+00  0.3000E+00  0.2000E+00  0.1500E+00  3.5000E+00  3.0000E-01
     1    42    46     8      11   1.0864E+02  2.0720E+03  9.2047E-02  1.0000E+00  5.0000E+00  0.3000E+00  0.2000E+00  0.1500E+00  3.5000E+00  3.0000E-01
     1    41    45     8      12   1.0864E+02  2.0600E+03  8.2843E-02  1.0000E+00  5.0000E+00  0.3000E+00  0.2000E+00  0.1500E+00  3.5000E+00  3.0000E-01
     1    40    45     8      13   9.0000E+01  2.0540E+03  7.7778E-02  1.0000E+00  5.0000E+00  0.3000E+00  0.2000E+00  0.1500E+00  3.5000E+00  3.0000E-01
     1    39    45     8      14   9.0000E+01  2.0460E+03  1.0556E-01  1.0000E+00  5.0000E+00  0.3000E+00  0.2000E+00  0.1500E+00  3.5000E+00  3.0000E-01
     1    38    45     8      15   9.0000E+01  2.0350E+03  1.0556E-01  1.0000E+00  5.0000E+00  0.3000E+00  0.2000E+00  0.1500E+00  3.5000E+00  3.0000E-01
     1    37    45     8      16   1.0864E+02  2.0270E+03  6.4433E-02  1.0000E+00  5.0000E+00  0.3000E+00  0.2000E+00  0.1500E+00  3.5000E+00  3.0000E-01
     1    36    46     8      17   1.0864E+02  2.0210E+03  5.9831E-02  1.0000E+00  5.0000E+00  0.3000E+00  0.2000E+00  0.1500E+00  3.5000E+00  3.0000E-01
     1    35    46     8      18   1.0864E+02  2.0140E+03  6.4433E-02  1.0000E+00  5.0000E+00  0.3000E+00  0.2000E+00  0.1500E+00  3.5000E+00  3.0000E-01
     1    34    47     8      19   6.3640E+01  2.0070E+03  1.0214E-01  1.0000E+00  5.0000E+00  0.3000E+00  0.2000E+00  0.1500E+00  3.5000E+00  3.0000E-01
     1    37    26     9       1   9.0000E+01  2.1470E+03  1.4444E-01  1.0000E+00  5.0000E+00  0.3000E+00  0.2000E+00  0.1500E+00  3.5000E+00  3.0000E-01
     1    37    27     9       2   9.0000E+01  2.1340E+03  1.2222E-01  1.0000E+00  5.0000E+00  0.3000E+00  0.2000E+00  0.1500E+00  3.5000E+00  3.0000E-01
     1    37    28     9       3   1.0864E+02  2.1250E+03  8.7445E-02  1.0000E+00  5.0000E+00  0.3000E+00  0.2000E+00  0.1500E+00  3.5000E+00  3.0000E-01
     1    36    29     9       4   1.0864E+02  2.1150E+03  8.2843E-02  1.0000E+00  5.0000E+00  0.3000E+00  0.2000E+00  0.1500E+00  3.5000E+00  3.0000E-01
     1    36    30     9       5   9.0000E+01  2.1070E+03  9.4444E-02  1.0000E+00  5.0000E+00  0.3000E+00  0.2000E+00  0.1500E+00  3.5000E+00  3.0000E-01
     1    36    31     9       6   9.0000E+01  2.0980E+03  8.8889E-02  1.0000E+00  5.0000E+00  0.3000E+00  0.2000E+00  0.1500E+00  3.5000E+00  3.0000E-01
     1    36    32     9       7   9.0000E+01  2.0910E+03  7.7778E-02  1.0000E+00  5.0000E+00  0.3000E+00  0.2000E+00  0.1500E+00  3.5000E+00  3.0000E-01
     1    36    33     9       8   9.0000E+01  2.0840E+03  7.7778E-02  1.0000E+00  5.0000E+00  0.3000E+00  0.2000E+00  0.1500E+00  3.5000E+00  3.0000E-01
     1    36    34     9       9   4.5000E+01  2.0770E+03  1.8889E-01  1.0000E+00  5.0000E+00  0.3000E+00  0.2000E+00  0.1500E+00  3.5000E+00  3.0000E-01
     1    58    37    10       1   9.0000E+01  2.1500E+03  2.2222E-02  1.0000E+00  5.0000E+00  0.3000E+00  0.2000E+00  0.1500E+00  3.5000E+00  3.0000E-01
     1    57    37    10       2   1.0864E+02  2.1470E+03  3.2217E-02  1.0000E+00  5.0000E+00  0.3000E+00  0.2000E+00  0.1500E+00  3.5000E+00  3.0000E-01
     1    56    38    10       3   1.0864E+02  2.1430E+03  4.1421E-02  1.0000E+00  5.0000E+00  0.3000E+00  0.2000E+00  0.1500E+00  3.5000E+00  3.0000E-01
     1    55    38    10       4   9.0000E+01  2.1380E+03  4.4444E-02  1.0000E+00  5.0000E+00  0.3000E+00  0.2000E+00  0.1500E+00  3.5000E+00  3.0000E-01
     1    54    38    10       5   9.0000E+01  2.1350E+03  3.3333E-02  1.0000E+00  5.0000E+00  0.3000E+00  0.2000E+00  0.1500E+00  3.5000E+00  3.0000E-01
     1    53    38    10       6   9.0000E+01  2.1320E+03  3.3333E-02  1.0000E+00  5.0000E+00  0.3000E+00  0.2000E+00  0.1500E+00  3.5000E+00  3.0000E-01
     1    52    38    10       7   1.0864E+02  2.1290E+03  1.8409E-02  1.0000E+00  5.0000E+00  0.3000E+00  0.2000E+00  0.1500E+00  3.5000E+00  3.0000E-01
     1    51    39    10       8   1.0864E+02  2.1280E+03  1.8409E-02  1.0000E+00  5.0000E+00  0.3000E+00  0.2000E+00  0.1500E+00  3.5000E+00  3.0000E-01
     1    50    39    10       9   1.0864E+02  2.1250E+03  3.2217E-02  1.0000E+00  5.0000E+00  0.3000E+00  0.2000E+00  0.1500E+00  3.5000E+00  3.0000E-01
     1    49    38    10      10   1.2728E+02  2.1210E+03  2.7499E-02  1.0000E+00  5.0000E+00  0.3000E+00  0.2000E+00  0.1500E+00  3.5000E+00  3.0000E-01
     1    48    37    10      11   1.2728E+02  2.1180E+03  4.7140E-02  1.0000E+00  5.0000E+00  0.3000E+00  0.2000E+00  0.1500E+00  3.5000E+00  3.0000E-01
     1    47    36    10      12   1.0864E+02  2.1090E+03  5.5228E-02  1.0000E+00  5.0000E+00  0.3000E+00  0.2000E+00  0.1500E+00  3.5000E+00  3.0000E-01
     1    46    36    10      13   9.0000E+01  2.1060E+03  3.8889E-02  1.0000E+00  5.0000E+00  0.3000E+00  0.2000E+00  0.1500E+00  3.5000E+00  3.0000E-01
     1    45    36    10      14   9.0000E+01  2.1020E+03  3.8889E-02  1.0000E+00  5.0000E+00  0.3000E+00  0.2000E+00  0.1500E+00  3.5000E+00  3.0000E-01
     1    44    36    10      15   9.0000E+01  2.0990E+03  3.3333E-02  1.0000E+00  5.0000E+00  0.3000E+00  0.2000E+00  0.1500E+00  3.5000E+00  3.0000E-01
     1    43    36    10      16   1.0864E+02  2.0960E+03  4.1421E-02  1.0000E+00  5.0000E+00  0.3000E+00  0.2000E+00  0.1500E+00  3.5000E+00  3.0000E-01
     1    42    37    10      17   1.0864E+02  2.0900E+03  7.3638E-02  1.0000E+00  5.0000E+00  0.3000E+00  0.2000E+00  0.1500E+00  3.5000E+00  3.0000E-01
     1    41    37    10      18   9.0000E+01  2.0800E+03  8.8889E-02  1.0000E+00  5.0000E+00  0.3000E+00  0.2000E+00  0.1500E+00  3.5000E+00  3.0000E-01
     1    40    37    10      19   1.0864E+02  2.0740E+03  4.1421E-02  1.0000E+00  5.0000E+00  0.3000E+00  0.2000E+00  0.1500E+00  3.5000E+00  3.0000E-01
     1    39    38    10      20   1.0864E+02  2.0710E+03  3.2217E-02  1.0000E+00  5.0000E+00  0.3000E+00  0.2000E+00  0.1500E+00  3.5000E+00  3.0000E-01
     1    38    38    10      21   1.0864E+02  2.0670E+03  4.6024E-02  1.0000E+00  5.0000E+00  0.3000E+00  0.2000E+00  0.1500E+00  3.5000E+00  3.0000E-01
     1    37    37    10      22   1.0864E+02  2.0610E+03  4.6024E-02  1.0000E+00  5.0000E+00  0.3000E+00  0.2000E+00  0.1500E+00  3.5000E+00  3.0000E-01
     1    36    37    10      23   9.0000E+01  2.0570E+03  3.8889E-02  1.0000E+00  5.0000E+00  0.3000E+00  0.2000E+00  0.1500E+00  3.5000E+00  3.0000E-01
     1    35    37    10      24   4.5000E+01  2.0540E+03  1.2222E-01  1.0000E+00  5.0000E+00  0.3000E+00  0.2000E+00  0.1500E+00  3.5000E+00  3.0000E-01
     1    36    55    11       1   4.5000E+01  1.9760E+03  7.7778E-02  1.0000E+00  5.0000E+00  0.3000E+00  0.2000E+00  0.1500E+00  3.5000E+00  3.0000E-01
     1    36    56    11       2   1.0864E+02  1.9750E+03  1.3807E-02  1.0000E+00  5.0000E+00  0.3000E+00  0.2000E+00  0.1500E+00  3.5000E+00  3.0000E-01
     1    37    57    11       3   1.0864E+02  1.9730E+03  1.3807E-02  1.0000E+00  5.0000E+00  0.3000E+00  0.2000E+00  0.1500E+00  3.5000E+00  3.0000E-01
     1    37    58    11       4   9.0000E+01  1.9720E+03  5.5556E-03  1.0000E+00  5.0000E+00  0.3000E+00  0.2000E+00  0.1500E+00  3.5000E+00  3.0000E-01
     1    37    59    11       5   9.0000E+01  1.9720E+03  1.1111E-02  1.0000E+00  5.0000E+00  0.3000E+00  0.2000E+00  0.1500E+00  3.5000E+00  3.0000E-01
     1    37    60    11       6   1.0864E+02  1.9700E+03  2.3012E-02  1.0000E+00  5.0000E+00  0.3000E+00  0.2000E+00  0.1500E+00  3.5000E+00  3.0000E-01
     1    38    61    11       7   1.0864E+02  1.9670E+03  3.2217E-02  1.0000E+00  5.0000E+00  0.3000E+00  0.2000E+00  0.1500E+00  3.5000E+00  3.0000E-01
     1    38    62    11       8   4.5000E+01  1.9630E+03  4.4444E-02  1.0000E+00  5.0000E+00  0.3000E+00  0.2000E+00  0.1500E+00  3.5000E+00  3.0000E-01
     1    51    11    12       1   1.2728E+02  2.3870E+03  8.6424E-02  1.0000E+00  5.0000E+00  0.3000E+00  0.2000E+00  0.1500E+00  3.5000E+00  3.0000E-01
     1    50    12    12       2   1.0864E+02  2.3750E+03  1.0125E-01  1.0000E+00  5.0000E+00  0.3000E+00  0.2000E+00  0.1500E+00  3.5000E+00  3.0000E-01
     1    49    12    12       3   1.0864E+02  2.3650E+03  8.7445E-02  1.0000E+00  5.0000E+00  0.3000E+00  0.2000E+00  0.1500E+00  3.5000E+00  3.0000E-01
     1    48    13    12       4   1.0864E+02  2.3560E+03  6.9036E-02  1.0000E+00  5.0000E+00  0.3000E+00  0.2000E+00  0.1500E+00  3.5000E+00  3.0000E-01
     1    48    14    12       5   1.0864E+02  2.3500E+03  7.3638E-02  1.0000E+00  5.0000E+00  0.3000E+00  0.2000E+00  0.1500E+00  3.5000E+00  3.0000E-01
     1    47    15    12       6   1.0864E+02  2.3400E+03  6.9036E-02  1.0000E+00  5.0000E+00  0.3000E+00  0.2000E+00  0.1500E+00  3.5000E+00  3.0000E-01
     1    47    16    12       7   1.0864E+02  2.3350E+03  5.0626E-02  1.0000E+00  5.0000E+00  0.3000E+00  0.2000E+00  0.1500E+00  3.5000E+00  3.0000E-01
     1    46    17    12       8   1.0864E+02  2.3290E+03  6.4433E-02  1.0000E+00  5.0000E+00  0.3000E+00  0.2000E+00  0.1500E+00  3.5000E+00  3.0000E-01
     1    46    18    12       9   9.0000E+01  2.3210E+03  1.2778E-01  1.0000E+00  5.0000E+00  0.3000E+00  0.2000E+00  0.1500E+00  3.5000E+00  3.0000E-01
     1    46    19    12      10   9.0000E+01  2.3060E+03  8.3333E-02  1.0000E+00  5.0000E+00  0.3000E+00  0.2000E+00  0.1500E+00  3.5000E+00  3.0000E-01
     1    46    20    12      11   1.0864E+02  2.3060E+03  1.4728E-01  1.0000E+00  5.0000E+00  0.3000E+00  0.2000E+00  0.1500E+00  3.5000E+00  3.0000E-01
     1    45    21    12      12   1.2728E+02  2.2740E+03  2.1999E-01  1.0000E+00  5.0000E+00  0.3000E+00  0.2000E+00  0.1500E+00  3.5000E+00  3.0000E-01
     1    44    22    12      13   1.2728E+02  2.2500E+03  1.6892E-01  1.0000E+00  5.0000E+00  0.3000E+00  0.2000E+00  0.1500E+00  3.5000E+00  3.0000E-01
     1    43    23    12      14   1.2728E+02  2.2310E+03  1.6499E-01  1.0000E+00  5.0000E+00  0.3000E+00  0.2000E+00  0.1500E+00  3.5000E+00  3.0000E-01
     1    42    24    12      15   1.0864E+02  2.2080E+03  1.4267E-01  1.0000E+00  5.0000E+00  0.3000E+00  0.2000E+00  0.1500E+00  3.5000E+00  3.0000E-01
     1    42    25    12      16   9.0000E+01  2.2000E+03  1.1111E-01  1.0000E+00  5.0000E+00  0.3000E+00  0.2000E+00  0.1500E+00  3.5000E+00  3.0000E-01
     1    42    26    12      17   9.0000E+01  2.1880E+03  1.6667E-01  1.0000E+00  5.0000E+00  0.3000E+00  0.2000E+00  0.1500E+00  3.5000E+00  3.0000E-01
     1    42    27    12      18   9.0000E+01  2.1700E+03  1.6111E-01  1.0000E+00  5.0000E+00  0.3000E+00  0.2000E+00  0.1500E+00  3.5000E+00  3.0000E-01
     1    42    28    12      19   1.0864E+02  2.1590E+03  1.2887E-01  1.0000E+00  5.0000E+00  0.3000E+00  0.2000E+00  0.1500E+00  3.5000E+00  3.0000E-01
     1    41    29    12      20   1.2728E+02  2.1420E+03  1.2571E-01  1.0000E+00  5.0000E+00  0.3000E+00  0.2000E+00  0.1500E+00  3.5000E+00  3.0000E-01
     1    40    30    12      21   1.2728E+02  2.1270E+03  1.0607E-01  1.0000E+00  5.0000E+00  0.3000E+00  0.2000E+00  0.1500E+00  3.5000E+00  3.0000E-01
     1    39    31    12      22   1.2728E+02  2.1150E+03  9.4281E-02  1.0000E+00  5.0000E+00  0.3000E+00  0.2000E+00  0.1500E+00  3.5000E+00  3.0000E-01
     1    38    32    12      23   1.2728E+02  2.1030E+03  1.0214E-01  1.0000E+00  5.0000E+00  0.3000E+00  0.2000E+00  0.1500E+00  3.5000E+00  3.0000E-01
     1    37    33    12      24   1.2728E+02  2.0890E+03  1.0214E-01  1.0000E+00  5.0000E+00  0.3000E+00  0.2000E+00  0.1500E+00  3.5000E+00  3.0000E-01
     1    36    34    12      25   6.3640E+01  2.0770E+03  1.7285E-01  1.0000E+00  5.0000E+00  0.3000E+00  0.2000E+00  0.1500E+00  3.5000E+00  3.0000E-01
     1    38    62    13       1   4.5000E+01  1.9630E+03  1.1111E-01  1.0000E+00  5.0000E+00  0.3000E+00  0.2000E+00  0.1500E+00  3.5000E+00  3.0000E-01
     1    38    63    13       2   9.0000E+01  1.9630E+03  1.0000E-07  1.0000E+00  5.0000E+00  0.3000E+00  0.2000E+00  0.1500E+00  3.5000E+00  3.0000E-01
     1    38    64    13       3   9.0000E+01  1.9630E+03  1.0000E-07  1.0000E+00  5.0000E+00  0.3000E+00  0.2000E+00  0.1500E+00  3.5000E+00  3.0000E-01
     1    38    65    13       4   9.0000E+01  1.9630E+03  1.6667E-02  1.0000E+00  5.0000E+00  0.3000E+00  0.2000E+00  0.1500E+00  3.5000E+00  3.0000E-01
     1    38    66    13       5   9.0000E+01  1.9600E+03  2.7778E-02  1.0000E+00  5.0000E+00  0.3000E+00  0.2000E+00  0.1500E+00  3.5000E+00  3.0000E-01
     1    38    67    13       6   1.0864E+02  1.9580E+03  3.2217E-02  1.0000E+00  5.0000E+00  0.3000E+00  0.2000E+00  0.1500E+00  3.5000E+00  3.0000E-01
     1    39    68    13       7   1.0864E+02  1.9530E+03  4.6024E-02  1.0000E+00  5.0000E+00  0.3000E+00  0.2000E+00  0.1500E+00  3.5000E+00  3.0000E-01
     1    39    69    13       8   9.0000E+01  1.9480E+03  3.8889E-02  1.0000E+00  5.0000E+00  0.3000E+00  0.2000E+00  0.1500E+00  3.5000E+00  3.0000E-01
     1    39    70    13       9   4.5000E+01  1.9460E+03  6.6667E-02  1.0000E+00  5.0000E+00  0.3000E+00  0.2000E+00  0.1500E+00  3.5000E+00  3.0000E-01
     1    46    61    14       1   9.0000E+01  2.0170E+03  7.7778E-02  1.0000E+00  5.0000E+00  0.3000E+00  0.2000E+00  0.1500E+00  3.5000E+00  3.0000E-01
     1    45    61    14       2   9.0000E+01  2.0100E+03  6.1111E-02  1.0000E+00  5.0000E+00  0.3000E+00  0.2000E+00  0.1500E+00  3.5000E+00  3.0000E-01
     1    44    61    14       3   9.0000E+01  2.0060E+03  6.1111E-02  1.0000E+00  5.0000E+00  0.3000E+00  0.2000E+00  0.1500E+00  3.5000E+00  3.0000E-01
     1    43    61    14       4   9.0000E+01  1.9990E+03  7.2222E-02  1.0000E+00  5.0000E+00  0.3000E+00  0.2000E+00  0.1500E+00  3.5000E+00  3.0000E-01
     1    42    61    14       5   9.0000E+01  1.9930E+03  7.7778E-02  1.0000E+00  5.0000E+00  0.3000E+00  0.2000E+00  0.1500E+00  3.5000E+00  3.0000E-01
     1    41    61    14       6   9.0000E+01  1.9850E+03  8.3333E-02  1.0000E+00  5.0000E+00  0.3000E+00  0.2000E+00  0.1500E+00  3.5000E+00  3.0000E-01
     1    40    61    14       7   9.0000E+01  1.9780E+03  6.6667E-02  1.0000E+00  5.0000E+00  0.3000E+00  0.2000E+00  0.1500E+00  3.5000E+00  3.0000E-01
     1    39    61    14       8   1.0864E+02  1.9730E+03  6.9036E-02  1.0000E+00  5.0000E+00  0.3000E+00  0.2000E+00  0.1500E+00  3.5000E+00  3.0000E-01
     1    38    62    14       9   6.3640E+01  1.9630E+03  7.8567E-02  1.0000E+00  5.0000E+00  0.3000E+00  0.2000E+00  0.1500E+00  3.5000E+00  3.0000E-01
     1    39    70    15       1   4.5000E+01  1.9460E+03  1.2222E-01  1.0000E+00  5.0000E+00  0.3000E+00  0.2000E+00  0.1500E+00  3.5000E+00  3.0000E-01
     1    39    71    15       2   1.0864E+02  1.9420E+03  2.3012E-02  1.0000E+00  5.0000E+00  0.3000E+00  0.2000E+00  0.1500E+00  3.5000E+00  3.0000E-01
     1    40    72    15       3   1.0864E+02  1.9410E+03  1.8409E-02  1.0000E+00  5.0000E+00  0.3000E+00  0.2000E+00  0.1500E+00  3.5000E+00  3.0000E-01
     1    40    73    15       4   9.0000E+01  1.9380E+03  2.7778E-02  1.0000E+00  5.0000E+00  0.3000E+00  0.2000E+00  0.1500E+00  3.5000E+00  3.0000E-01
     1    40    74    15       5   9.0000E+01  1.9360E+03  2.2222E-02  1.0000E+00  5.0000E+00  0.3000E+00  0.2000E+00  0.1500E+00  3.5000E+00  3.0000E-01
     1    40    75    15       6   4.5000E+01  1.9340E+03  3.3333E-02  1.0000E+00  5.0000E+00  0.3000E+00  0.2000E+00  0.1500E+00  3.5000E+00  3.0000E-01
     1    40    75    16       1   4.5000E+01  1.9340E+03  5.5556E-02  1.0000E+00  5.0000E+00  0.3000E+00  0.2000E+00  0.1500E+00  3.5000E+00  3.0000E-01
     **WARNING** CELL BENEATH STREAM REACH IS INACTIVE
     CELL BELOW MUST HAVE THE SAME SPECIFIC YIELD
     AND THE TOP ELEVATION OF ACTIVE CELL MUST EQUAL BOTTOM OF INACTIVE CELL
     INACTIVE CELL IS BELOW STREAM REACH AND SEGMENT:    2   16
     1    40    76    16       2   9.0000E+01  1.9330E+03  1.6667E-02  1.0000E+00  5.0000E+00  0.3000E+00  0.2000E+00  0.1500E+00  3.5000E+00  3.0000E-01
     1    55    73    17       1   9.0000E+01  2.0410E+03  1.2778E-01  1.0000E+00  5.0000E+00  0.3000E+00  0.2000E+00  0.1500E+00  3.5000E+00  3.0000E-01
     1    54    73    17       2   9.0000E+01  2.0290E+03  1.3333E-01  1.0000E+00  5.0000E+00  0.3000E+00  0.2000E+00  0.1500E+00  3.5000E+00  3.0000E-01
     1    53    73    17       3   9.0000E+01  2.0170E+03  1.0556E-01  1.0000E+00  5.0000E+00  0.3000E+00  0.2000E+00  0.1500E+00  3.5000E+00  3.0000E-01
     1    52    73    17       4   1.0864E+02  2.0100E+03  8.7445E-02  1.0000E+00  5.0000E+00  0.3000E+00  0.2000E+00  0.1500E+00  3.5000E+00  3.0000E-01
     1    51    72    17       5   1.0864E+02  1.9980E+03  7.8240E-02  1.0000E+00  5.0000E+00  0.3000E+00  0.2000E+00  0.1500E+00  3.5000E+00  3.0000E-01
     1    50    72    17       6   9.0000E+01  1.9930E+03  6.6667E-02  1.0000E+00  5.0000E+00  0.3000E+00  0.2000E+00  0.1500E+00  3.5000E+00  3.0000E-01
     1    49    72    17       7   9.0000E+01  1.9860E+03  7.7778E-02  1.0000E+00  5.0000E+00  0.3000E+00  0.2000E+00  0.1500E+00  3.5000E+00  3.0000E-01
     1    48    72    17       8   9.0000E+01  1.9790E+03  7.7778E-02  1.0000E+00  5.0000E+00  0.3000E+00  0.2000E+00  0.1500E+00  3.5000E+00  3.0000E-01
     1    47    72    17       9   9.0000E+01  1.9720E+03  7.2222E-02  1.0000E+00  5.0000E+00  0.3000E+00  0.2000E+00  0.1500E+00  3.5000E+00  3.0000E-01
     1    46    72    17      10   9.0000E+01  1.9660E+03  6.6667E-02  1.0000E+00  5.0000E+00  0.3000E+00  0.2000E+00  0.1500E+00  3.5000E+00  3.0000E-01
     1    45    72    17      11   1.0864E+02  1.9600E+03  6.4433E-02  1.0000E+00  5.0000E+00  0.3000E+00  0.2000E+00  0.1500E+00  3.5000E+00  3.0000E-01
     1    44    73    17      12   1.0864E+02  1.9520E+03  5.9831E-02  1.0000E+00  5.0000E+00  0.3000E+00  0.2000E+00  0.1500E+00  3.5000E+00  3.0000E-01
     1    43    73    17      13   9.0000E+01  1.9470E+03  4.4444E-02  1.0000E+00  5.0000E+00  0.3000E+00  0.2000E+00  0.1500E+00  3.5000E+00  3.0000E-01
     1    42    73    17      14   1.0864E+02  1.9440E+03  4.1421E-02  1.0000E+00  5.0000E+00  0.3000E+00  0.2000E+00  0.1500E+00  3.5000E+00  3.0000E-01
     1    41    74    17      15   1.2728E+02  1.9380E+03  3.9284E-02  1.0000E+00  5.0000E+00  0.3000E+00  0.2000E+00  0.1500E+00  3.5000E+00  3.0000E-01
     1    40    75    17      16   6.3640E+01  1.9340E+03  3.9284E-02  1.0000E+00  5.0000E+00  0.3000E+00  0.2000E+00  0.1500E+00  3.5000E+00  3.0000E-01
     1    37    55    18       1   1.0864E+02  2.0070E+03  3.3333E-03  1.0000E+00  5.0000E+00  0.3000E+00  0.2000E+00  0.1500E+00  3.5000E+00  3.0000E-01
     1    36    54    19       1   1.0864E+02  2.0070E+03  3.3333E-03  1.0000E+00  5.0000E+00  0.3000E+00  0.2000E+00  0.1500E+00  3.5000E+00  3.0000E-01

 *** WARNING *** STREAM SEGMENT   16 REACH NO.    2 IS CONNECTED TO A CONSTANT HEAD CELL.
 IBOUND ARRAY VALUE IS   -1 AT LAYER    1; ROW   40; COLUMN   76.
 NO STREAM LEAKAGE WILL BE ALLOWED-- SUGGEST REMOVING STREAM REACH FROM CELL OR CHANGE CELL TO VARIABLE HEAD.





 UZF1 -- UNSATURATED FLOW PACKAGE, VERSION 1.5, 09/10/2019
         INPUT READ FROM UNIT 14
 #Sagehen-GRID Simulation -- Example problem for GSFLOW
 No named parameters

 PROCESSING UZF OPTIONS


HYDRAULIC CONDUCTIVITY OF LAND SURFACE 
WILL BE READ


SURFACE LEAKAGE WILL BE CALCULATED 
USING LAND SURFACE K


 END PROCESSING UZF OPTIONS



            AREAL EXTENT OF UZ FLOW
 READING ON UNIT   14 WITH FORMAT: (FREE)              

                1           2           3           4           5           6           7           8           9          10
               11          12          13          14          15          16          17          18          19          20
               21          22          23          24          25          26          27          28          29          30
               31          32          33          34          35          36          37          38          39          40
               41          42          43          44          45          46          47          48          49          50
               51          52          53          54          55          56          57          58          59          60
               61          62          63          64          65          66          67          68          69          70
               71          72          73          74          75          76          77          78          79
 ............................................................................................................................
   1            0           0           0           0           0           0           0           0           0           0
                0           0           0           0           0           0           0           0           0           0
                0           0           0           0           0           0           0           0           0           0
                0           0           0           0           0           0           0           0           0           0
                0           0           0           0           0           0           0           0           0           0
                0           1           1           0           0           0           0           0           0           0
                0           0           0           0           0           0           0           0           0           0
                0           0           0           0           0           0           0           0           0
   2            0           0           0           0           0           0           0           0           0           0
                0           0           0           0           0           0           0           0           0           0
                0           0           0           0           0           0           0           0           0           0
                0           0           0           0           0           0           0           0           0           0
                0           0           0           0           0           0           0           0           0           0
                0           1           1           1           0           0           0           0           0           0
                0           0           0           0           0           0           0           0           0           0
                0           0           0           0           0           0           0           0           0
   3            0           0           0           0           0           0           0           0           0           0
                0           0           0           0           0           0           0           0           0           0
                0           0           0           0           0           0           0           0           0           0
                0           0           0           0           0           0           0           0           0           0
                0           0           0           0           0           0           0           0           0           0
                0           1           1           1           0           0           0           0           0           0
                0           0           0           0           0           0           0           0           0           0
                0           0           0           0           0           0           0           0           0
   4            0           0           0           0           0           0           0           0           0           0
                0           0           0           0           0           0           0           0           0           0
                0           0           0           0           0           0           0           0           0           0
                0           0           0           0           0           0           0           0           0           0
                0           0           0           0           0           0           0           0           0           0
                0           1           1           1           1           0           0           0           0           0
                0           0           0           0           0           0           0           0           0           0
                0           0           0           0           0           0           0           0           0
   5            0           0           0           0           0           0           0           0           0           0
                0           0           0           0           0           0           0           0           0           0
                0           0           0           0           0           0           0           0           0           0
                0           0           0           0           0           0           0           0           0           0
                0           0           0           0           0           0           0           0           0           0
                0           1           1           1           1           1           1           0           0           0
                0           0           0           0           0           0           0           0           0           0
                0           0           0           0           0           0           0           0           0
   6            0           0           0           0           0           0           0           0           0           0
                0           0           0           0           0           0           0           0           0           0
                0           0           0           0           0           0           0           0           0           0
                0           0           0           0           0           0           0           0           0           0
                0           0           0           0           0           0           0           0           0           0
                0           1           1           1           1           1           1           1           1           0
                0           0           0           1           1           0           0           0           0           0
                0           0           0           0           0           0           0           0           0
   7            0           0           0           0           0           0           0           0           0           0
                0           0           0           0           0           0           0           0           0           0
                0           0           0           0           0           0           0           0           0           0
                0           0           0           0           0           0           0           0           0           0
                0           0           0           0           0           0           0           0           0           0
                0           1           1           1           1           1           1           1           1           1
                1           1           1           1           1           1           0           0           0           0
                0           0           0           0           0           0           0           0           0
   8            0           0           0           0           0           0           0           0           0           0
                0           0           0           0           0           0           0           0           0           0
                0           0           0           0           0           0           0           0           0           0
                0           0           0           0           0           0           0           0           0           0
                0           0           0           0           0           0           0           0           0           0
                0           1           1           1           1           1           1           1           1           1
                1           1           1           1           1           1           1           1           0           0
                0           0           0           0           0           0           0           0           0
   9            0           0           0           0           0           0           0           0           0           0
                0           0           0           0           0           0           0           0           0           0
                0           0           0           0           0           0           0           0           0           0
                0           0           0           0           0           0           0           0           0           0
                0           0           0           0           0           0           0           0           0           0
                1           1           1           1           1           1           1           1           1           1
                1           1           1           1           1           1           1           1           1           0
                0           0           0           0           0           0           0           0           0
  10            0           0           0           0           0           0           0           0           0           0
                0           0           0           0           0           0           0           0           0           0
                0           0           0           0           0           0           0           0           0           0
                0           0           0           0           0           0           0           0           0           0
                0           0           0           0           0           0           0           0           0           1
                1           1           1           1           1           1           1           1           1           1
                1           1           1           1           1           1           1           1           1           1
                0           0           0           0           0           0           0           0           0
  11            0           0           0           0           0           0           0           0           0           0
                0           0           0           0           0           0           0           0           0           0
                0           0           0           0           0           0           0           0           0           0
                0           0           0           0           0           0           0           0           0           0
                0           0           0           0           0           0           0           0           1           1
                1           1           1           1           1           1           1           1           1           1
                1           1           1           1           1           1           1           1           1           1
                1           0           0           0           0           0           0           0           0
  12            0           0           0           0           0           0           0           0           0           0
                0           0           0           0           0           0           0           0           0           0
                0           0           0           0           0           0           0           0           0           0
                0           0           0           0           0           0           0           0           0           0
                0           1           1           0           0           0           0           1           1           1
                1           1           1           1           1           1           1           1           1           1
                1           1           1           1           1           1           1           1           1           1
                1           0           0           0           0           0           0           0           0
  13            0           0           0           0           0           0           0           0           0           0
                0           0           0           0           0           0           0           0           0           0
                0           0           0           0           0           0           0           0           0           0
                0           0           0           0           0           0           0           0           1           1
                1           1           1           1           1           1           1           1           1           1
                1           1           1           1           1           1           1           1           1           1
                1           1           1           1           1           1           1           1           1           1
                1           1           0           0           0           0           0           0           0
  14            0           0           0           0           0           0           0           0           0           0
                0           0           0           0           0           0           0           0           0           0
                0           0           0           0           0           0           0           0           0           0
                0           0           0           0           0           0           0           0           1           1
                1           1           1           1           1           1           1           1           1           1
                1           1           1           1           1           1           1           1           1           1
                1           1           1           1           1           1           1           1           1           1
                1           1           1           0           0           0           0           0           0
  15            0           0           0           0           0           0           0           0           0           0
                0           0           0           0           0           0           0           0           0           0
                0           0           0           0           0           0           0           0           0           0
                0           0           0           0           0           0           0           1           1           1
                1           1           1           1           1           1           1           1           1           1
                1           1           1           1           1           1           1           1           1           1
                1           1           1           1           1           1           1           1           1           1
                1           1           1           0           0           0           0           0           0
  16            0           0           0           0           0           0           0           0           0           0
                0           0           0           0           0           0           0           0           0           0
                0           0           0           0           0           0           0           0           0           0
                0           0           0           0           0           0           1           1           1           1
                1           1           1           1           1           1           1           1           1           1
                1           1           1           1           1           1           1           1           1           1
                1           1           1           1           1           1           1           1           1           1
                1           1           1           1           0           0           0           0           0
  17            0           0           0           0           0           0           0           0           0           0
                0           0           0           0           0           0           0           0           0           0
                0           0           0           0           0           0           0           0           0           0
                0           0           0           0           0           1           1           1           1           1
                1           1           1           1           1           1           1           1           1           1
                1           1           1           1           1           1           1           1           1           1
                1           1           1           1           1           1           1           1           1           1
                1           1           1           1           0           0           0           0           0
  18            0           0           0           0           0           0           0           0           0           0
                0           0           0           0           0           0           0           0           0           0
                0           0           0           0           0           0           0           0           0           0
                0           0           0           0           1           1           1           1           1           1
                1           1           1           1           1           1           1           1           1           1
                1           1           1           1           1           1           1           1           1           1
                1           1           1           1           1           1           1           1           1           1
                1           1           1           1           0           0           0           0           0
  19            0           0           0           0           0           0           0           0           0           0
                0           0           0           0           0           0           0           0           0           0
                0           0           0           0           0           0           0           0           0           0
                0           0           0           1           1           1           1           1           1           1
                1           1           1           1           1           1           1           1           1           1
                1           1           1           1           1           1           1           1           1           1
                1           1           1           1           1           1           1           1           1           1
                1           1           1           1           0           0           0           0           0
  20            0           0           0           0           0           0           0           0           0           0
                0           0           0           0           0           0           0           0           0           0
                0           0           0           0           0           0           0           0           0           0
                0           0           0           1           1           1           1           1           1           1
                1           1           1           1           1           1           1           1           1           1
                1           1           1           1           1           1           1           1           1           1
                1           1           1           1           1           1           1           1           1           1
                1           1           1           1           0           0           0           0           0
  21            0           0           0           0           0           0           0           0           0           0
                0           0           0           0           0           0           0           0           0           0
                0           0           0           0           0           0           0           0           0           0
                0           0           1           1           1           1           1           1           1           1
                1           1           1           1           1           1           1           1           1           1
                1           1           1           1           1           1           1           1           1           1
                1           1           1           1           1           1           1           1           1           1
                1           1           1           1           1           0           0           0           0
  22            0           0           0           0           0           0           0           0           0           0
                0           0           0           0           0           0           0           0           0           0
                0           0           0           0           0           0           0           0           0           0
                0           0           1           1           1           1           1           1           1           1
                1           1           1           1           1           1           1           1           1           1
                1           1           1           1           1           1           1           1           1           1
                1           1           1           1           1           1           1           1           1           1
                1           1           1           1           0           0           0           0           0
  23            0           0           0           0           0           0           0           0           0           0
                0           0           0           0           0           0           0           0           0           0
                0           0           0           0           0           0           0           0           0           0
                0           1           1           1           1           1           1           1           1           1
                1           1           1           1           1           1           1           1           1           1
                1           1           1           1           1           1           1           1           1           1
                1           1           1           1           1           1           1           1           1           1
                1           0           0           0           0           0           0           0           0
  24            0           0           0           0           0           0           0           0           0           0
                0           0           0           0           0           0           0           0           0           0
                0           0           0           0           0           0           0           0           1           1
                1           1           1           1           1           1           1           1           1           1
                1           1           1           1           1           1           1           1           1           1
                1           1           1           1           1           1           1           1           1           1
                1           1           1           1           1           1           1           1           1           1
                1           0           0           0           0           0           0           0           0
  25            0           0           0           0           0           0           0           0           0           0
                0           0           0           0           0           0           0           0           0           0
                0           0           0           0           0           0           0           1           1           1
                1           1           1           1           1           1           1           1           1           1
                1           1           1           1           1           1           1           1           1           1
                1           1           1           1           1           1           1           1           1           1
                1           1           1           1           1           1           1           1           1           1
                1           0           0           0           0           0           0           0           0
  26            0           0           0           0           0           0           0           0           0           0
                0           0           0           0           0           0           0           0           0           0
                0           0           0           0           0           1           1           1           1           1
                1           1           1           1           1           1           1           1           1           1
                1           1           1           1           1           1           1           1           1           1
                1           1           1           1           1           1           1           1           1           1
                1           1           1           1           1           1           1           1           1           1
                1           0           0           0           0           0           0           0           0
  27            0           0           0           0           0           0           0           0           0           0
                0           0           0           0           0           0           0           0           0           0
                0           0           0           0           1           1           1           1           1           1
                1           1           1           1           1           1           1           1           1           1
                1           1           1           1           1           1           1           1           1           1
                1           1           1           1           1           1           1           1           1           1
                1           1           1           1           1           1           1           1           1           1
                1           0           0           0           0           0           0           0           0
  28            0           0           0           0           0           0           0           0           0           0
                0           0           0           0           0           0           0           0           0           0
                0           0           0           1           1           1           1           1           1           1
                1           1           1           1           1           1           1           1           1           1
                1           1           1           1           1           1           1           1           1           1
                1           1           1           1           1           1           1           1           1           1
                1           1           1           1           1           1           1           1           1           1
                1           1           0           0           0           0           0           0           0
  29            0           0           0           0           0           0           0           0           0           0
                0           0           0           0           0           0           0           0           0           0
                0           1           1           1           1           1           1           1           1           1
                1           1           1           1           1           1           1           1           1           1
                1           1           1           1           1           1           1           1           1           1
                1           1           1           1           1           1           1           1           1           1
                1           1           1           1           1           1           1           1           1           1
                1           1           0           0           0           0           0           0           0
  30            0           0           0           0           0           0           0           0           0           0
                0           0           0           0           0           0           0           0           0           1
                1           1           1           1           1           1           1           1           1           1
                1           1           1           1           1           1           1           1           1           1
                1           1           1           1           1           1           1           1           1           1
                1           1           1           1           1           1           1           1           1           1
                1           1           1           1           1           1           1           1           1           1
                1           1           0           0           0           0           0           0           0
  31            0           0           0           0           0           0           0           0           0           0
                0           0           0           0           0           0           0           0           1           1
                1           1           1           1           1           1           1           1           1           1
                1           1           1           1           1           1           1           1           1           1
                1           1           1           1           1           1           1           1           1           1
                1           1           1           1           1           1           1           1           1           1
                1           1           1           1           1           1           1           1           1           1
                1           1           0           0           0           0           0           0           0
  32            0           0           0           0           0           0           0           0           0           0
                0           0           0           0           0           0           1           1           1           1
                1           1           1           1           1           1           1           1           1           1
                1           1           1           1           1           1           1           1           1           1
                1           1           1           1           1           1           1           1           1           1
                1           1           1           1           1           1           1           1           1           1
                1           1           1           1           1           1           1           1           1           1
                1           1           0           0           0           0           0           0           0
  33            0           0           0           0           0           0           0           0           0           0
                0           0           0           0           0           1           1           1           1           1
                1           1           1           1           1           1           1           1           1           1
                1           1           1           1           1           1           1           1           1           1
                1           1           1           1           1           1           1           1           1           1
                1           1           1           1           1           1           1           1           1           1
                1           1           1           1           1           1           1           1           1           1
                1           1           1           0           0           0           0           0           0
  34            0           0           0           0           0           0           0           0           0           0
                0           0           0           0           1           1           1           1           1           1
                1           1           1           1           1           1           1           1           1           1
                1           1           1           1           1           1           1           1           1           1
                1           1           1           1           1           1           1           1           1           1
                1           1           1           1           1           1           1           1           1           1
                1           1           1           1           1           1           1           1           1           1
                1           1           1           0           0           0           0           0           0
  35            0           0           0           0           0           0           0           0           0           0
                0           0           0           1           1           1           1           1           1           1
                1           1           1           1           1           1           1           1           1           1
                1           1           1           1           1           1           1           1           1           1
                1           1           1           1           1           1           1           1           1           1
                1           1           1           1           1           1           1           1           1           1
                1           1           1           1           1           1           1           1           1           1
                1           1           1           1           0           0           0           0           0
  36            0           0           0           0           0           0           0           0           0           0
                0           0           0           1           1           1           1           1           1           1
                1           1           1           1           1           1           1           1           1           1
                1           1           1           1           1           1           1           1           1           1
                1           1           1           1           1           1           1           1           1           1
                1           1           1           1           1           1           1           1           1           1
                1           1           1           1           1           1           1           1           1           1
                1           1           1           1           1           0           0           0           0
  37            0           0           0           0           0           0           0           0           0           0
                0           0           1           1           1           1           1           1           1           1
                1           1           1           1           1           1           1           1           1           1
                1           1           1           1           1           1           1           1           1           1
                1           1           1           1           1           1           1           1           1           1
                1           1           1           1           1           1           1           1           1           1
                1           1           1           1           1           1           1           1           1           1
                1           1           1           1           1           0           0           0           0
  38            0           0           0           0           0           0           0           0           0           0
                1           1           1           1           1           1           1           1           1           1
                1           1           1           1           1           1           1           1           1           1
                1           1           1           1           1           1           1           1           1           1
                1           1           1           1           1           1           1           1           1           1
                1           1           1           1           1           1           1           1           1           1
                1           1           1           1           1           1           1           1           1           1
                1           1           1           1           1           1           0           0           0
  39            0           0           0           0           0           0           0           1           1           1
                1           1           1           1           1           1           1           1           1           1
                1           1           1           1           1           1           1           1           1           1
                1           1           1           1           1           1           1           1           1           1
                1           1           1           1           1           1           1           1           1           1
                1           1           1           1           1           1           1           1           1           1
                1           1           1           1           1           1           1           1           1           1
                1           1           1           1           1          -1           0           0           0
  40            0           0           0           0           0           0           1           1           1           1
                1           1           1           1           1           1           1           1           1           1
                1           1           1           1           1           1           1           1           1           1
                1           1           1           1           1           1           1           1           1           1
                1           1           1           1           1           1           1           1           1           1
                1           1           1           1           1           1           1           1           1           1
                1           1           1           1           1           1           1           1           1           1
                1           1           1           1           1          -1           0           0           0
  41            0           0           0           0           0           1           1           1           1           1
                1           1           1           1           1           1           1           1           1           1
                1           1           1           1           1           1           1           1           1           1
                1           1           1           1           1           1           1           1           1           1
                1           1           1           1           1           1           1           1           1           1
                1           1           1           1           1           1           1           1           1           1
                1           1           1           1           1           1           1           1           1           1
                1           1           1           1           1           0           0           0           0
  42            0           0           0           0           0           1           1           1           1           1
                1           1           1           1           1           1           1           1           1           1
                1           1           1           1           1           1           1           1           1           1
                1           1           1           1           1           1           1           1           1           1
                1           1           1           1           1           1           1           1           1           1
                1           1           1           1           1           1           1           1           1           1
                1           1           1           1           1           1           1           1           1           1
                1           1           1           1           1           0           0           0           0
  43            0           0           0           0           0           1           1           1           1           1
                1           1           1           1           1           1           1           1           1           1
                1           1           1           1           1           1           1           1           1           1
                1           1           1           1           1           1           1           1           1           1
                1           1           1           1           1           1           1           1           1           1
                1           1           1           1           1           1           1           1           1           1
                1           1           1           1           1           1           1           1           1           1
                1           1           1           1           1           0           0           0           0
  44            0           0           0           0           0           1           1           1           1           1
                1           1           1           1           1           1           1           1           1           1
                1           1           1           1           1           1           1           1           1           1
                1           1           1           1           1           1           1           1           1           1
                1           1           1           1           1           1           1           1           1           1
                1           1           1           1           1           1           1           1           1           1
                1           1           1           1           1           1           1           1           1           1
                1           1           1           1           1           0           0           0           0
  45            0           0           0           1           1           1           1           1           1           1
                1           1           1           1           1           1           1           1           1           1
                1           1           1           1           1           1           1           1           1           1
                1           1           1           1           1           1           1           1           1           1
                1           1           1           1           1           1           1           1           1           1
                1           1           1           1           1           1           1           1           1           1
                1           1           1           1           1           1           1           1           1           1
                1           1           1           1           1           0           0           0           0
  46            0           0           0           1           1           1           1           1           1           1
                1           1           1           1           1           1           1           1           1           1
                1           1           1           1           1           1           1           1           1           1
                1           1           1           1           1           1           1           1           1           1
                1           1           1           1           1           1           1           1           1           1
                1           1           1           1           1           1           1           1           1           1
                1           1           1           1           1           1           1           1           1           1
                1           1           1           1           1           0           0           0           0
  47            0           0           0           1           1           1           1           1           1           1
                1           1           1           1           1           1           1           1           1           1
                1           1           1           1           1           1           1           1           1           1
                1           1           1           1           1           1           1           1           1           1
                1           1           1           1           1           1           1           1           1           1
                1           1           1           1           1           1           1           1           1           1
                1           1           1           1           1           1           1           1           1           1
                1           1           1           1           1           0           0           0           0
  48            0           0           0           1           1           1           1           1           1           1
                1           1           1           1           1           1           1           1           1           1
                1           1           1           1           1           1           1           1           1           1
                1           1           1           1           1           1           1           1           1           1
                1           1           1           1           1           1           1           1           1           1
                1           1           1           1           1           1           1           1           1           1
                1           1           1           1           1           1           1           1           1           1
                1           1           1           1           1           1           0           0           0
  49            0           0           0           1           1           1           1           1           1           1
                1           1           1           1           1           1           1           1           1           1
                1           1           1           1           1           1           1           1           1           1
                1           1           1           1           1           1           1           1           1           1
                1           1           1           1           1           1           1           1           1           1
                1           1           1           1           1           1           1           1           1           1
                1           1           1           1           1           1           1           1           1           1
                1           1           1           1           1           1           0           0           0
  50            0           0           0           1           1           1           1           1           1           1
                1           1           1           1           1           1           1           1           1           1
                1           1           1           1           1           1           1           1           1           1
                1           1           1           1           1           1           1           1           1           1
                1           1           1           1           1           1           1           1           1           1
                1           1           1           1           1           1           1           1           1           1
                1           1           1           1           1           1           1           1           1           1
                1           1           1           1           1           1           0           0           0
  51            0           0           0           1           1           1           1           1           1           1
                1           1           1           1           1           1           1           1           1           1
                1           1           1           1           1           1           1           1           1           1
                1           1           1           1           1           1           1           1           1           1
                1           1           1           1           1           1           1           1           1           1
                1           1           1           1           1           1           1           1           1           1
                1           1           1           1           1           1           1           1           1           1
                1           1           1           1           1           1           0           0           0
  52            0           0           1           1           1           1           1           1           1           1
                1           1           1           1           1           1           1           1           1           1
                1           1           1           1           1           1           1           1           1           1
                1           1           1           1           1           1           1           1           1           1
                1           1           1           1           1           1           1           1           1           1
                1           1           1           1           1           1           1           1           1           1
                1           1           1           1           1           1           1           1           1           1
                1           1           1           1           1           1           0           0           0
  53            0           0           1           1           1           1           1           1           1           1
                1           1           1           1           1           1           1           1           1           1
                1           1           1           1           1           1           1           1           1           1
                1           1           1           1           1           1           1           1           1           1
                1           1           1           1           1           1           1           1           1           1
                1           1           1           1           1           1           1           1           1           1
                1           1           1           1           1           1           1           1           1           1
                1           1           1           1           1           1           1           0           0
  54            0           0           1           1           1           1           1           1           1           1
                1           1           1           1           1           1           1           1           1           1
                1           1           1           1           1           1           1           1           1           1
                1           1           1           1           1           1           1           1           1           1
                1           1           1           1           1           1           1           1           1           1
                1           1           1           1           1           1           1           1           1           1
                1           1           1           1           1           1           1           1           1           1
                1           1           1           1           1           1           1           0           0
  55            0           1           1           1           1           1           1           1           1           1
                1           1           1           1           1           1           1           1           1           1
                1           1           1           1           1           1           1           1           1           1
                1           1           1           1           1           1           1           1           1           1
                1           1           1           1           1           1           1           1           1           1
                1           1           1           1           1           1           1           1           1           1
                1           1           1           1           1           1           1           1           1           1
                1           1           1           1           1           1           1           0           0
  56            0           1           1           1           1           1           1           1           1           1
                1           1           1           1           1           1           1           1           1           1
                1           1           1           1           1           1           1           1           1           1
                1           1           1           1           1           1           1           1           1           1
                1           1           1           1           1           1           1           1           1           1
                1           1           1           1           1           1           1           1           1           1
                1           1           1           1           1           1           1           1           1           1
                1           1           1           1           1           1           1           0           0
  57            1           1           1           1           1           1           1           1           1           1
                1           1           1           1           1           1           1           1           1           1
                1           1           1           1           1           1           1           1           1           1
                1           1           1           1           1           1           1           1           1           1
                1           1           1           1           1           1           1           1           1           1
                1           1           1           1           1           1           1           1           1           1
                1           1           1           1           1           1           1           1           1           1
                1           1           1           1           1           1           1           0           0
  58            1           1           1           1           1           1           1           1           1           1
                1           1           1           1           1           1           1           1           1           1
                1           1           1           1           1           1           1           1           1           1
                1           1           1           1           1           1           1           1           1           1
                1           1           1           1           1           1           1           1           1           1
                1           1           1           1           1           1           1           1           1           1
                1           1           1           1           1           1           1           1           1           1
                1           1           1           1           1           1           1           0           0
  59            1           1           1           1           1           1           1           1           1           1
                1           1           1           1           1           1           1           1           1           1
                1           1           1           1           1           1           1           1           1           1
                1           1           1           1           1           1           1           1           1           1
                1           1           1           1           1           1           1           1           1           1
                1           1           1           1           1           1           1           1           1           1
                1           1           1           1           1           1           1           1           1           1
                1           1           1           1           1           1           1           1           0
  60            0           1           1           1           1           1           1           1           1           1
                1           1           1           0           0           0           1           1           1           1
                1           1           1           1           1           1           1           1           1           1
                1           1           1           1           1           1           1           1           1           1
                1           1           1           1           1           1           1           1           1           1
                1           1           1           1           1           1           1           1           1           1
                1           1           1           1           1           1           1           1           1           1
                1           1           1           1           1           1           1           1           1
  61            0           0           1           1           1           1           1           1           1           1
                1           0           0           0           0           0           0           1           1           1
                1           1           1           1           1           1           1           1           1           1
                1           1           1           1           1           1           1           1           1           1
                1           1           1           1           1           1           1           1           1           1
                1           1           1           1           1           1           1           1           1           1
                1           1           1           1           1           1           1           1           1           1
                1           1           1           1           1           1           1           1           1
  62            0           0           0           1           0           0           0           0           0           0
                0           0           0           0           0           0           0           0           0           1
                1           1           1           1           1           1           1           1           1           1
                1           1           1           1           1           1           1           1           1           1
                1           1           1           1           1           1           1           1           1           1
                1           1           1           1           1           1           1           1           1           1
                1           1           1           1           1           1           1           1           1           1
                1           1           1           1           1           1           1           1           1
  63            0           0           0           0           0           0           0           0           0           0
                0           0           0           0           0           0           0           0           0           1
                1           1           1           1           1           1           1           1           1           1
                1           1           1           1           1           1           1           1           1           1
                1           1           1           1           1           1           1           1           1           1
                1           1           1           1           1           1           1           1           1           1
                1           1           1           1           1           1           1           1           1           1
                1           1           1           1           1           1           1           1           1
  64            0           0           0           0           0           0           0           0           0           0
                0           0           0           0           0           0           0           0           0           0
                0           0           0           0           1           1           1           1           1           1
                1           1           1           1           1           1           1           1           1           1
                1           1           1           1           1           1           1           1           1           1
                1           1           1           1           1           1           1           1           1           1
                1           1           1           1           1           1           1           1           1           1
                1           1           1           1           1           1           1           1           1
  65            0           0           0           0           0           0           0           0           0           0
                0           0           0           0           0           0           0           0           0           0
                0           0           0           0           0           0           0           0           0           0
                0           0           0           1           1           1           1           1           1           1
                1           1           1           1           1           0           0           0           0           1
                1           1           1           1           1           1           1           1           1           1
                1           1           1           1           1           1           1           1           1           1
                1           1           1           1           1           1           1           1           1
  66            0           0           0           0           0           0           0           0           0           0
                0           0           0           0           0           0           0           0           0           0
                0           0           0           0           0           0           0           0           0           0
                0           0           0           0           0           1           1           0           0           0
                0           0           0           0           0           0           0           0           0           0
                1           1           1           1           1           1           1           1           1           1
                1           1           1           1           1           1           1           1           1           1
                1           1           1           1           1           1           1           1           1
  67            0           0           0           0           0           0           0           0           0           0
                0           0           0           0           0           0           0           0           0           0
                0           0           0           0           0           0           0           0           0           0
                0           0           0           0           0           0           0           0           0           0
                0           0           0           0           0           0           0           0           0           0
                0           0           1           1           1           1           1           1           1           1
                1           1           1           1           1           1           1           1           1           1
                1           0           0           0           0           0           0           0           0
  68            0           0           0           0           0           0           0           0           0           0
                0           0           0           0           0           0           0           0           0           0
                0           0           0           0           0           0           0           0           0           0
                0           0           0           0           0           0           0           0           0           0
                0           0           0           0           0           0           0           0           0           0
                0           0           0           1           1           1           1           1           1           1
                1           1           1           1           1           1           1           1           0           0
                0           0           0           0           0           0           0           0           0
  69            0           0           0           0           0           0           0           0           0           0
                0           0           0           0           0           0           0           0           0           0
                0           0           0           0           0           0           0           0           0           0
                0           0           0           0           0           0           0           0           0           0
                0           0           0           0           0           0           0           0           0           0
                0           0           0           0           0           0           0           0           0           0
                1           1           1           1           1           1           1           0           0           0
                0           0           0           0           0           0           0           0           0
  70            0           0           0           0           0           0           0           0           0           0
                0           0           0           0           0           0           0           0           0           0
                0           0           0           0           0           0           0           0           0           0
                0           0           0           0           0           0           0           0           0           0
                0           0           0           0           0           0           0           0           0           0
                0           0           0           0           0           0           0           0           0           0
                0           1           1           1           1           1           0           0           0           0
                0           0           0           0           0           0           0           0           0
  71            0           0           0           0           0           0           0           0           0           0
                0           0           0           0           0           0           0           0           0           0
                0           0           0           0           0           0           0           0           0           0
                0           0           0           0           0           0           0           0           0           0
                0           0           0           0           0           0           0           0           0           0
                0           0           0           0           0           0           0           0           0           0
                0           0           1           1           0           0           0           0           0           0
                0           0           0           0           0           0           0           0           0
 OPTION 3 -- RECHARGE IN UZF TO HIGHEST ACTIVE NODE IN EACH VERTICAL COLUMN



               SATURATED VERTICAL K
 READING ON UNIT   14 WITH FORMAT: (FREE)              

            1           2           3           4           5           6           7           8           9          10
           11          12          13          14          15          16          17          18          19          20
           21          22          23          24          25          26          27          28          29          30
           31          32          33          34          35          36          37          38          39          40
           41          42          43          44          45          46          47          48          49          50
           51          52          53          54          55          56          57          58          59          60
           61          62          63          64          65          66          67          68          69          70
           71          72          73          74          75          76          77          78          79
 ........................................................................................................................
   1    0.000       0.000       0.000       0.000       0.000       0.000       0.000       0.000       0.000       0.000    
        0.000       0.000       0.000       0.000       0.000       0.000       0.000       0.000       0.000       0.000    
        0.000       0.000       0.000       0.000       0.000       0.000       0.000       0.000       0.000       0.000    
        0.000       0.000       0.000       0.000       0.000       0.000       0.000       0.000       0.000       0.000    
        0.000       0.000       0.000       0.000       0.000       0.000       0.000       0.000       0.000       0.000    
        0.000      1.8000E-02  1.8000E-02   0.000       0.000       0.000       0.000       0.000       0.000       0.000    
        0.000       0.000       0.000       0.000       0.000       0.000       0.000       0.000       0.000       0.000    
        0.000       0.000       0.000       0.000       0.000       0.000       0.000       0.000       0.000    
   2    0.000       0.000       0.000       0.000       0.000       0.000       0.000       0.000       0.000       0.000    
        0.000       0.000       0.000       0.000       0.000       0.000       0.000       0.000       0.000       0.000    
        0.000       0.000       0.000       0.000       0.000       0.000       0.000       0.000       0.000       0.000    
        0.000       0.000       0.000       0.000       0.000       0.000       0.000       0.000       0.000       0.000    
        0.000       0.000       0.000       0.000       0.000       0.000       0.000       0.000       0.000       0.000    
        0.000      1.8000E-02  4.5000E-02  4.5000E-02   0.000       0.000       0.000       0.000       0.000       0.000    
        0.000       0.000       0.000       0.000       0.000       0.000       0.000       0.000       0.000       0.000    
        0.000       0.000       0.000       0.000       0.000       0.000       0.000       0.000       0.000    
   3    0.000       0.000       0.000       0.000       0.000       0.000       0.000       0.000       0.000       0.000    
        0.000       0.000       0.000       0.000       0.000       0.000       0.000       0.000       0.000       0.000    
        0.000       0.000       0.000       0.000       0.000       0.000       0.000       0.000       0.000       0.000    
        0.000       0.000       0.000       0.000       0.000       0.000       0.000       0.000       0.000       0.000    
        0.000       0.000       0.000       0.000       0.000       0.000       0.000       0.000       0.000       0.000    
        0.000      1.8000E-02  4.5000E-02  9.0000E-02   0.000       0.000       0.000       0.000       0.000       0.000    
        0.000       0.000       0.000       0.000       0.000       0.000       0.000       0.000       0.000       0.000    
        0.000       0.000       0.000       0.000       0.000       0.000       0.000       0.000       0.000    
   4    0.000       0.000       0.000       0.000       0.000       0.000       0.000       0.000       0.000       0.000    
        0.000       0.000       0.000       0.000       0.000       0.000       0.000       0.000       0.000       0.000    
        0.000       0.000       0.000       0.000       0.000       0.000       0.000       0.000       0.000       0.000    
        0.000       0.000       0.000       0.000       0.000       0.000       0.000       0.000       0.000       0.000    
        0.000       0.000       0.000       0.000       0.000       0.000       0.000       0.000       0.000       0.000    
        0.000      4.5000E-02  4.5000E-02  9.0000E-02  9.0000E-02   0.000       0.000       0.000       0.000       0.000    
        0.000       0.000       0.000       0.000       0.000       0.000       0.000       0.000       0.000       0.000    
        0.000       0.000       0.000       0.000       0.000       0.000       0.000       0.000       0.000    
   5    0.000       0.000       0.000       0.000       0.000       0.000       0.000       0.000       0.000       0.000    
        0.000       0.000       0.000       0.000       0.000       0.000       0.000       0.000       0.000       0.000    
        0.000       0.000       0.000       0.000       0.000       0.000       0.000       0.000       0.000       0.000    
        0.000       0.000       0.000       0.000       0.000       0.000       0.000       0.000       0.000       0.000    
        0.000       0.000       0.000       0.000       0.000       0.000       0.000       0.000       0.000       0.000    
        0.000      4.5000E-02  4.5000E-02  4.5000E-02  9.0000E-02  4.5000E-02  4.5000E-02   0.000       0.000       0.000    
        0.000       0.000       0.000       0.000       0.000       0.000       0.000       0.000       0.000       0.000    
        0.000       0.000       0.000       0.000       0.000       0.000       0.000       0.000       0.000    
   6    0.000       0.000       0.000       0.000       0.000       0.000       0.000       0.000       0.000       0.000    
        0.000       0.000       0.000       0.000       0.000       0.000       0.000       0.000       0.000       0.000    
        0.000       0.000       0.000       0.000       0.000       0.000       0.000       0.000       0.000       0.000    
        0.000       0.000       0.000       0.000       0.000       0.000       0.000       0.000       0.000       0.000    
        0.000       0.000       0.000       0.000       0.000       0.000       0.000       0.000       0.000       0.000    
        0.000      4.5000E-02  4.5000E-02  4.5000E-02  9.0000E-02  9.0000E-02  4.5000E-02  4.5000E-02  4.5000E-02   0.000    
        0.000       0.000       0.000      4.5000E-02  4.5000E-02   0.000       0.000       0.000       0.000       0.000    
        0.000       0.000       0.000       0.000       0.000       0.000       0.000       0.000       0.000    
   7    0.000       0.000       0.000       0.000       0.000       0.000       0.000       0.000       0.000       0.000    
        0.000       0.000       0.000       0.000       0.000       0.000       0.000       0.000       0.000       0.000    
        0.000       0.000       0.000       0.000       0.000       0.000       0.000       0.000       0.000       0.000    
        0.000       0.000       0.000       0.000       0.000       0.000       0.000       0.000       0.000       0.000    
        0.000       0.000       0.000       0.000       0.000       0.000       0.000       0.000       0.000       0.000    
        0.000      4.5000E-02  4.5000E-02  4.5000E-02  9.0000E-02  9.0000E-02  9.0000E-02  4.5000E-02  4.5000E-02  4.5000E-02
       4.5000E-02  4.5000E-02  4.5000E-02  4.5000E-02  4.5000E-02  4.5000E-02   0.000       0.000       0.000       0.000    
        0.000       0.000       0.000       0.000       0.000       0.000       0.000       0.000       0.000    
   8    0.000       0.000       0.000       0.000       0.000       0.000       0.000       0.000       0.000       0.000    
        0.000       0.000       0.000       0.000       0.000       0.000       0.000       0.000       0.000       0.000    
        0.000       0.000       0.000       0.000       0.000       0.000       0.000       0.000       0.000       0.000    
        0.000       0.000       0.000       0.000       0.000       0.000       0.000       0.000       0.000       0.000    
        0.000       0.000       0.000       0.000       0.000       0.000       0.000       0.000       0.000       0.000    
        0.000      4.5000E-02  4.5000E-02  4.5000E-02  9.0000E-02  9.0000E-02  9.0000E-02  4.5000E-02  4.5000E-02  4.5000E-02
       4.5000E-02  4.5000E-02  4.5000E-02  4.5000E-02  4.5000E-02  4.5000E-02  4.5000E-02  4.5000E-02   0.000       0.000    
        0.000       0.000       0.000       0.000       0.000       0.000       0.000       0.000       0.000    
   9    0.000       0.000       0.000       0.000       0.000       0.000       0.000       0.000       0.000       0.000    
        0.000       0.000       0.000       0.000       0.000       0.000       0.000       0.000       0.000       0.000    
        0.000       0.000       0.000       0.000       0.000       0.000       0.000       0.000       0.000       0.000    
        0.000       0.000       0.000       0.000       0.000       0.000       0.000       0.000       0.000       0.000    
        0.000       0.000       0.000       0.000       0.000       0.000       0.000       0.000       0.000       0.000    
       3.6000E-02  4.5000E-02  4.5000E-02  4.5000E-02  9.0000E-02  9.0000E-02  9.0000E-02  4.5000E-02  4.5000E-02  4.5000E-02
       4.5000E-02  4.5000E-02  4.5000E-02  4.5000E-02  4.5000E-02  4.5000E-02  4.5000E-02  4.5000E-02  4.5000E-02   0.000    
        0.000       0.000       0.000       0.000       0.000       0.000       0.000       0.000       0.000    
  10    0.000       0.000       0.000       0.000       0.000       0.000       0.000       0.000       0.000       0.000    
        0.000       0.000       0.000       0.000       0.000       0.000       0.000       0.000       0.000       0.000    
        0.000       0.000       0.000       0.000       0.000       0.000       0.000       0.000       0.000       0.000    
        0.000       0.000       0.000       0.000       0.000       0.000       0.000       0.000       0.000       0.000    
        0.000       0.000       0.000       0.000       0.000       0.000       0.000       0.000       0.000      4.5000E-02
       4.5000E-02  4.5000E-02  4.5000E-02  4.5000E-02  4.5000E-02  9.0000E-02  9.0000E-02  9.0000E-02  4.5000E-02  4.5000E-02
       4.5000E-02  4.5000E-02  4.5000E-02  4.5000E-02  4.5000E-02  4.5000E-02  4.5000E-02  4.5000E-02  4.5000E-02  4.5000E-02
        0.000       0.000       0.000       0.000       0.000       0.000       0.000       0.000       0.000    
  11    0.000       0.000       0.000       0.000       0.000       0.000       0.000       0.000       0.000       0.000    
        0.000       0.000       0.000       0.000       0.000       0.000       0.000       0.000       0.000       0.000    
        0.000       0.000       0.000       0.000       0.000       0.000       0.000       0.000       0.000       0.000    
        0.000       0.000       0.000       0.000       0.000       0.000       0.000       0.000       0.000       0.000    
        0.000       0.000       0.000       0.000       0.000       0.000       0.000       0.000      4.5000E-02  4.5000E-02
       4.5000E-02  4.5000E-02  4.5000E-02  4.5000E-02  4.5000E-02  9.0000E-02  9.0000E-02  9.0000E-02  4.5000E-02  4.5000E-02
       4.5000E-02  4.5000E-02  4.5000E-02  4.5000E-02  4.5000E-02  4.5000E-02  4.5000E-02  4.5000E-02  4.5000E-02  4.5000E-02
       4.5000E-02   0.000       0.000       0.000       0.000       0.000       0.000       0.000       0.000    
  12    0.000       0.000       0.000       0.000       0.000       0.000       0.000       0.000       0.000       0.000    
        0.000       0.000       0.000       0.000       0.000       0.000       0.000       0.000       0.000       0.000    
        0.000       0.000       0.000       0.000       0.000       0.000       0.000       0.000       0.000       0.000    
        0.000       0.000       0.000       0.000       0.000       0.000       0.000       0.000       0.000       0.000    
        0.000      3.6000E-02  3.6000E-02   0.000       0.000       0.000       0.000      3.6000E-02  4.5000E-02  4.5000E-02
       4.5000E-02  4.5000E-02  4.5000E-02  4.5000E-02  4.5000E-02  9.0000E-02  9.0000E-02  9.0000E-02  4.5000E-02  4.5000E-02
       4.5000E-02  4.5000E-02  4.5000E-02  4.5000E-02  4.5000E-02  4.5000E-02  4.5000E-02  4.5000E-02  4.5000E-02  4.5000E-02
       4.5000E-02   0.000       0.000       0.000       0.000       0.000       0.000       0.000       0.000    
  13    0.000       0.000       0.000       0.000       0.000       0.000       0.000       0.000       0.000       0.000    
        0.000       0.000       0.000       0.000       0.000       0.000       0.000       0.000       0.000       0.000    
        0.000       0.000       0.000       0.000       0.000       0.000       0.000       0.000       0.000       0.000    
        0.000       0.000       0.000       0.000       0.000       0.000       0.000       0.000      3.6000E-02  3.6000E-02
       3.6000E-02  3.6000E-02  3.6000E-02  3.6000E-02  3.6000E-02  3.6000E-02  3.6000E-02  3.6000E-02  4.5000E-02  4.5000E-02
       4.5000E-02  4.5000E-02  4.5000E-02  4.5000E-02  4.5000E-02  9.0000E-02  9.0000E-02  9.0000E-02  4.5000E-02  4.5000E-02
       4.5000E-02  4.5000E-02  4.5000E-02  4.5000E-02  4.5000E-02  4.5000E-02  4.5000E-02  4.5000E-02  4.5000E-02  4.5000E-02
       4.5000E-02  4.5000E-02   0.000       0.000       0.000       0.000       0.000       0.000       0.000    
  14    0.000       0.000       0.000       0.000       0.000       0.000       0.000       0.000       0.000       0.000    
        0.000       0.000       0.000       0.000       0.000       0.000       0.000       0.000       0.000       0.000    
        0.000       0.000       0.000       0.000       0.000       0.000       0.000       0.000       0.000       0.000    
        0.000       0.000       0.000       0.000       0.000       0.000       0.000       0.000      3.6000E-02  3.6000E-02
       3.6000E-02  3.6000E-02  3.6000E-02  3.6000E-02  4.5000E-02  4.5000E-02  4.5000E-02  4.5000E-02  4.5000E-02  4.5000E-02
       4.5000E-02  4.5000E-02  4.5000E-02  4.5000E-02  4.5000E-02  9.0000E-02  9.0000E-02  9.0000E-02  9.0000E-02  9.0000E-02
       4.5000E-02  4.5000E-02  4.5000E-02  4.5000E-02  4.5000E-02  4.5000E-02  4.5000E-02  9.0000E-02  4.5000E-02  4.5000E-02
       4.5000E-02  4.5000E-02  4.5000E-02   0.000       0.000       0.000       0.000       0.000       0.000    
  15    0.000       0.000       0.000       0.000       0.000       0.000       0.000       0.000       0.000       0.000    
        0.000       0.000       0.000       0.000       0.000       0.000       0.000       0.000       0.000       0.000    
        0.000       0.000       0.000       0.000       0.000       0.000       0.000       0.000       0.000       0.000    
        0.000       0.000       0.000       0.000       0.000       0.000       0.000      3.6000E-02  3.6000E-02  3.6000E-02
       4.5000E-02  4.5000E-02  4.5000E-02  4.5000E-02  4.5000E-02  4.5000E-02  4.5000E-02  4.5000E-02  4.5000E-02  4.5000E-02
       4.5000E-02  4.5000E-02  4.5000E-02  4.5000E-02  4.5000E-02  4.5000E-02  9.0000E-02  9.0000E-02  9.0000E-02  9.0000E-02
       9.0000E-02  4.5000E-02  4.5000E-02  9.0000E-02  9.0000E-02  9.0000E-02  9.0000E-02  9.0000E-02  9.0000E-02  4.5000E-02
       4.5000E-02  4.5000E-02  2.7000E-02   0.000       0.000       0.000       0.000       0.000       0.000    
  16    0.000       0.000       0.000       0.000       0.000       0.000       0.000       0.000       0.000       0.000    
        0.000       0.000       0.000       0.000       0.000       0.000       0.000       0.000       0.000       0.000    
        0.000       0.000       0.000       0.000       0.000       0.000       0.000       0.000       0.000       0.000    
        0.000       0.000       0.000       0.000       0.000       0.000      3.6000E-02  3.6000E-02  3.6000E-02  3.6000E-02
       3.6000E-02  4.5000E-02  4.5000E-02  4.5000E-02  4.5000E-02  4.5000E-02  4.5000E-02  4.5000E-02  4.5000E-02  4.5000E-02
       4.5000E-02  4.5000E-02  4.5000E-02  4.5000E-02  4.5000E-02  4.5000E-02  9.0000E-02  9.0000E-02  9.0000E-02  9.0000E-02
       9.0000E-02  9.0000E-02  9.0000E-02  9.0000E-02  9.0000E-02  9.0000E-02  9.0000E-02  9.0000E-02  9.0000E-02  4.5000E-02
       4.5000E-02  4.5000E-02  2.7000E-02  2.7000E-02   0.000       0.000       0.000       0.000       0.000    
  17    0.000       0.000       0.000       0.000       0.000       0.000       0.000       0.000       0.000       0.000    
        0.000       0.000       0.000       0.000       0.000       0.000       0.000       0.000       0.000       0.000    
        0.000       0.000       0.000       0.000       0.000       0.000       0.000       0.000       0.000       0.000    
        0.000       0.000       0.000       0.000       0.000      3.6000E-02  3.6000E-02  3.6000E-02  3.6000E-02  3.6000E-02
       3.6000E-02  4.5000E-02  4.5000E-02  4.5000E-02  4.5000E-02  4.5000E-02  4.5000E-02  4.5000E-02  4.5000E-02  4.5000E-02
       4.5000E-02  4.5000E-02  4.5000E-02  4.5000E-02  4.5000E-02  4.5000E-02  9.0000E-02  9.0000E-02  9.0000E-02  9.0000E-02
       9.0000E-02  9.0000E-02  9.0000E-02  9.0000E-02  9.0000E-02  9.0000E-02  9.0000E-02  9.0000E-02  9.0000E-02  4.5000E-02
       4.5000E-02  4.5000E-02  2.7000E-02  2.7000E-02   0.000       0.000       0.000       0.000       0.000    
  18    0.000       0.000       0.000       0.000       0.000       0.000       0.000       0.000       0.000       0.000    
        0.000       0.000       0.000       0.000       0.000       0.000       0.000       0.000       0.000       0.000    
        0.000       0.000       0.000       0.000       0.000       0.000       0.000       0.000       0.000       0.000    
        0.000       0.000       0.000       0.000      3.6000E-02  3.6000E-02  3.6000E-02  3.6000E-02  3.6000E-02  3.6000E-02
       3.6000E-02  3.6000E-02  3.6000E-02  4.5000E-02  4.5000E-02  4.5000E-02  4.5000E-02  4.5000E-02  4.5000E-02  4.5000E-02
       4.5000E-02  4.5000E-02  4.5000E-02  4.5000E-02  4.5000E-02  4.5000E-02  9.0000E-02  9.0000E-02  9.0000E-02  9.0000E-02
       9.0000E-02  9.0000E-02  9.0000E-02  9.0000E-02  9.0000E-02  9.0000E-02  9.0000E-02  9.0000E-02  9.0000E-02  9.0000E-02
       4.5000E-02  4.5000E-02  4.5000E-02  2.7000E-02   0.000       0.000       0.000       0.000       0.000    
  19    0.000       0.000       0.000       0.000       0.000       0.000       0.000       0.000       0.000       0.000    
        0.000       0.000       0.000       0.000       0.000       0.000       0.000       0.000       0.000       0.000    
        0.000       0.000       0.000       0.000       0.000       0.000       0.000       0.000       0.000       0.000    
        0.000       0.000       0.000      3.6000E-02  3.6000E-02  3.6000E-02  3.6000E-02  3.6000E-02  3.6000E-02  3.6000E-02
       3.6000E-02  3.6000E-02  3.6000E-02  3.6000E-02  4.5000E-02  4.5000E-02  4.5000E-02  4.5000E-02  4.5000E-02  4.5000E-02
       4.5000E-02  4.5000E-02  4.5000E-02  4.5000E-02  4.5000E-02  4.5000E-02  4.5000E-02  9.0000E-02  9.0000E-02  9.0000E-02
       9.0000E-02  9.0000E-02  9.0000E-02  9.0000E-02  9.0000E-02  9.0000E-02  9.0000E-02  9.0000E-02  9.0000E-02  9.0000E-02
       4.5000E-02  4.5000E-02  4.5000E-02  2.7000E-02   0.000       0.000       0.000       0.000       0.000    
  20    0.000       0.000       0.000       0.000       0.000       0.000       0.000       0.000       0.000       0.000    
        0.000       0.000       0.000       0.000       0.000       0.000       0.000       0.000       0.000       0.000    
        0.000       0.000       0.000       0.000       0.000       0.000       0.000       0.000       0.000       0.000    
        0.000       0.000       0.000      1.8000E-02  3.6000E-02  3.6000E-02  3.6000E-02  3.6000E-02  3.6000E-02  3.6000E-02
       3.6000E-02  3.6000E-02  3.6000E-02  3.6000E-02  4.5000E-02  4.5000E-02  4.5000E-02  4.5000E-02  4.5000E-02  4.5000E-02
       4.5000E-02  4.5000E-02  4.5000E-02  4.5000E-02  4.5000E-02  4.5000E-02  4.5000E-02  9.0000E-02  9.0000E-02  9.0000E-02
       9.0000E-02  9.0000E-02  9.0000E-02  9.0000E-02  9.0000E-02  9.0000E-02  9.0000E-02  9.0000E-02  9.0000E-02  9.0000E-02
       4.5000E-02  4.5000E-02  4.5000E-02  2.7000E-02   0.000       0.000       0.000       0.000       0.000    
  21    0.000       0.000       0.000       0.000       0.000       0.000       0.000       0.000       0.000       0.000    
        0.000       0.000       0.000       0.000       0.000       0.000       0.000       0.000       0.000       0.000    
        0.000       0.000       0.000       0.000       0.000       0.000       0.000       0.000       0.000       0.000    
        0.000       0.000      1.8000E-02  1.8000E-02  3.6000E-02  1.8000E-02  3.6000E-02  3.6000E-02  3.6000E-02  3.6000E-02
       3.6000E-02  3.6000E-02  3.6000E-02  3.6000E-02  3.6000E-02  4.5000E-02  4.5000E-02  4.5000E-02  4.5000E-02  4.5000E-02
       4.5000E-02  4.5000E-02  4.5000E-02  4.5000E-02  4.5000E-02  4.5000E-02  4.5000E-02  4.5000E-02  9.0000E-02  9.0000E-02
       9.0000E-02  9.0000E-02  9.0000E-02  9.0000E-02  9.0000E-02  9.0000E-02  9.0000E-02  9.0000E-02  9.0000E-02  4.5000E-02
       4.5000E-02  4.5000E-02  4.5000E-02  2.7000E-02  2.7000E-02   0.000       0.000       0.000       0.000    
  22    0.000       0.000       0.000       0.000       0.000       0.000       0.000       0.000       0.000       0.000    
        0.000       0.000       0.000       0.000       0.000       0.000       0.000       0.000       0.000       0.000    
        0.000       0.000       0.000       0.000       0.000       0.000       0.000       0.000       0.000       0.000    
        0.000       0.000      1.8000E-02  1.8000E-02  1.8000E-02  1.8000E-02  3.6000E-02  3.6000E-02  3.6000E-02  3.6000E-02
       3.6000E-02  3.6000E-02  3.6000E-02  3.6000E-02  3.6000E-02  4.5000E-02  4.5000E-02  4.5000E-02  4.5000E-02  4.5000E-02
       4.5000E-02  4.5000E-02  4.5000E-02  4.5000E-02  4.5000E-02  4.5000E-02  4.5000E-02  4.5000E-02  4.5000E-02  4.5000E-02
       4.5000E-02  9.0000E-02  9.0000E-02  9.0000E-02  9.0000E-02  9.0000E-02  9.0000E-02  9.0000E-02  9.0000E-02  4.5000E-02
       4.5000E-02  4.5000E-02  4.5000E-02  4.5000E-02   0.000       0.000       0.000       0.000       0.000    
  23    0.000       0.000       0.000       0.000       0.000       0.000       0.000       0.000       0.000       0.000    
        0.000       0.000       0.000       0.000       0.000       0.000       0.000       0.000       0.000       0.000    
        0.000       0.000       0.000       0.000       0.000       0.000       0.000       0.000       0.000       0.000    
        0.000      1.8000E-02  1.8000E-02  1.8000E-02  1.8000E-02  3.6000E-02  3.6000E-02  3.6000E-02  3.6000E-02  3.6000E-02
       3.6000E-02  3.6000E-02  3.6000E-02  3.6000E-02  3.6000E-02  4.5000E-02  4.5000E-02  9.0000E-02  4.5000E-02  4.5000E-02
       4.5000E-02  4.5000E-02  4.5000E-02  4.5000E-02  4.5000E-02  4.5000E-02  4.5000E-02  4.5000E-02  4.5000E-02  4.5000E-02
       4.5000E-02  4.5000E-02  9.0000E-02  9.0000E-02  9.0000E-02  9.0000E-02  9.0000E-02  9.0000E-02  9.0000E-02  4.5000E-02
       4.5000E-02   0.000       0.000       0.000       0.000       0.000       0.000       0.000       0.000    
  24    0.000       0.000       0.000       0.000       0.000       0.000       0.000       0.000       0.000       0.000    
        0.000       0.000       0.000       0.000       0.000       0.000       0.000       0.000       0.000       0.000    
        0.000       0.000       0.000       0.000       0.000       0.000       0.000       0.000      1.8000E-02  1.8000E-02
       1.8000E-02  1.8000E-02  1.8000E-02  1.8000E-02  1.8000E-02  3.6000E-02  3.6000E-02  3.6000E-02  3.6000E-02  3.6000E-02
       3.6000E-02  3.6000E-02  3.6000E-02  3.6000E-02  3.6000E-02  4.5000E-02  4.5000E-02  9.0000E-02  9.0000E-02  4.5000E-02
       4.5000E-02  4.5000E-02  4.5000E-02  4.5000E-02  4.5000E-02  4.5000E-02  4.5000E-02  4.5000E-02  4.5000E-02  4.5000E-02
       4.5000E-02  4.5000E-02  4.5000E-02  9.0000E-02  9.0000E-02  9.0000E-02  9.0000E-02  9.0000E-02  9.0000E-02  4.5000E-02
       4.5000E-02   0.000       0.000       0.000       0.000       0.000       0.000       0.000       0.000    
  25    0.000       0.000       0.000       0.000       0.000       0.000       0.000       0.000       0.000       0.000    
        0.000       0.000       0.000       0.000       0.000       0.000       0.000       0.000       0.000       0.000    
        0.000       0.000       0.000       0.000       0.000       0.000       0.000      1.8000E-02  1.8000E-02  1.8000E-02
       1.8000E-02  1.8000E-02  1.8000E-02  1.8000E-02  3.6000E-02  3.6000E-02  3.6000E-02  3.6000E-02  3.6000E-02  3.6000E-02
       3.6000E-02  3.6000E-02  3.6000E-02  3.6000E-02  4.5000E-02  4.5000E-02  4.5000E-02  9.0000E-02  9.0000E-02  4.5000E-02
       4.5000E-02  4.5000E-02  4.5000E-02  4.5000E-02  4.5000E-02  4.5000E-02  4.5000E-02  4.5000E-02  4.5000E-02  4.5000E-02
       4.5000E-02  4.5000E-02  4.5000E-02  4.5000E-02  4.5000E-02  9.0000E-02  9.0000E-02  9.0000E-02  9.0000E-02  4.5000E-02
       4.5000E-02   0.000       0.000       0.000       0.000       0.000       0.000       0.000       0.000    
  26    0.000       0.000       0.000       0.000       0.000       0.000       0.000       0.000       0.000       0.000    
        0.000       0.000       0.000       0.000       0.000       0.000       0.000       0.000       0.000       0.000    
        0.000       0.000       0.000       0.000       0.000      1.8000E-02  1.8000E-02  1.8000E-02  1.8000E-02  1.8000E-02
       1.8000E-02  1.8000E-02  1.8000E-02  3.6000E-02  3.6000E-02  3.6000E-02  3.6000E-02  3.6000E-02  3.6000E-02  3.6000E-02
       3.6000E-02  3.6000E-02  4.5000E-02  4.5000E-02  4.5000E-02  4.5000E-02  4.5000E-02  4.5000E-02  9.0000E-02  9.0000E-02
       9.0000E-02  4.5000E-02  4.5000E-02  4.5000E-02  4.5000E-02  4.5000E-02  4.5000E-02  4.5000E-02  4.5000E-02  4.5000E-02
       4.5000E-02  4.5000E-02  4.5000E-02  4.5000E-02  4.5000E-02  9.0000E-02  9.0000E-02  9.0000E-02  9.0000E-02  4.5000E-02
       4.5000E-02   0.000       0.000       0.000       0.000       0.000       0.000       0.000       0.000    
  27    0.000       0.000       0.000       0.000       0.000       0.000       0.000       0.000       0.000       0.000    
        0.000       0.000       0.000       0.000       0.000       0.000       0.000       0.000       0.000       0.000    
        0.000       0.000       0.000       0.000      1.8000E-02  1.8000E-02  1.8000E-02  1.8000E-02  1.8000E-02  1.8000E-02
       1.8000E-02  1.8000E-02  3.6000E-02  3.6000E-02  3.6000E-02  3.6000E-02  3.6000E-02  3.6000E-02  3.6000E-02  3.6000E-02
       3.6000E-02  4.5000E-02  4.5000E-02  4.5000E-02  4.5000E-02  4.5000E-02  4.5000E-02  4.5000E-02  4.5000E-02  9.0000E-02
       9.0000E-02  4.5000E-02  4.5000E-02  4.5000E-02  4.5000E-02  4.5000E-02  4.5000E-02  4.5000E-02  4.5000E-02  4.5000E-02
       4.5000E-02  4.5000E-02  4.5000E-02  4.5000E-02  4.5000E-02  9.0000E-02  9.0000E-02  9.0000E-02  9.0000E-02  9.0000E-02
       4.5000E-02   0.000       0.000       0.000       0.000       0.000       0.000       0.000       0.000    
  28    0.000       0.000       0.000       0.000       0.000       0.000       0.000       0.000       0.000       0.000    
        0.000       0.000       0.000       0.000       0.000       0.000       0.000       0.000       0.000       0.000    
        0.000       0.000       0.000      1.8000E-02  1.8000E-02  1.8000E-02  1.8000E-02  1.8000E-02  1.8000E-02  1.8000E-02
       1.8000E-02  3.6000E-02  3.6000E-02  3.6000E-02  3.6000E-02  3.6000E-02  3.6000E-02  3.6000E-02  4.5000E-02  4.5000E-02
       4.5000E-02  4.5000E-02  4.5000E-02  4.5000E-02  4.5000E-02  4.5000E-02  4.5000E-02  4.5000E-02  4.5000E-02  4.5000E-02
       9.0000E-02  9.0000E-02  4.5000E-02  4.5000E-02  4.5000E-02  4.5000E-02  4.5000E-02  4.5000E-02  4.5000E-02  4.5000E-02
       4.5000E-02  4.5000E-02  4.5000E-02  4.5000E-02  4.5000E-02  4.5000E-02  9.0000E-02  9.0000E-02  0.2700      9.0000E-02
       4.5000E-02  4.5000E-02   0.000       0.000       0.000       0.000       0.000       0.000       0.000    
  29    0.000       0.000       0.000       0.000       0.000       0.000       0.000       0.000       0.000       0.000    
        0.000       0.000       0.000       0.000       0.000       0.000       0.000       0.000       0.000       0.000    
        0.000      1.8000E-02  1.8000E-02  1.8000E-02  1.8000E-02  1.8000E-02  1.8000E-02  1.8000E-02  1.8000E-02  3.6000E-02
       3.6000E-02  3.6000E-02  3.6000E-02  3.6000E-02  3.6000E-02  3.6000E-02  3.6000E-02  4.5000E-02  4.5000E-02  4.5000E-02
       4.5000E-02  4.5000E-02  4.5000E-02  4.5000E-02  4.5000E-02  4.5000E-02  4.5000E-02  4.5000E-02  4.5000E-02  4.5000E-02
       9.0000E-02  9.0000E-02  4.5000E-02  4.5000E-02  4.5000E-02  4.5000E-02  4.5000E-02  4.5000E-02  4.5000E-02  4.5000E-02
       4.5000E-02  4.5000E-02  4.5000E-02  4.5000E-02  4.5000E-02  4.5000E-02  9.0000E-02  9.0000E-02  0.2700      9.0000E-02
       4.5000E-02  4.5000E-02   0.000       0.000       0.000       0.000       0.000       0.000       0.000    
  30    0.000       0.000       0.000       0.000       0.000       0.000       0.000       0.000       0.000       0.000    
        0.000       0.000       0.000       0.000       0.000       0.000       0.000       0.000       0.000      1.8000E-02
       1.8000E-02  1.8000E-02  1.8000E-02  1.8000E-02  1.8000E-02  1.8000E-02  1.8000E-02  3.6000E-02  3.6000E-02  3.6000E-02
       3.6000E-02  3.6000E-02  3.6000E-02  3.6000E-02  3.6000E-02  3.6000E-02  3.6000E-02  4.5000E-02  4.5000E-02  4.5000E-02
       4.5000E-02  4.5000E-02  4.5000E-02  4.5000E-02  4.5000E-02  4.5000E-02  4.5000E-02  4.5000E-02  4.5000E-02  4.5000E-02
       9.0000E-02  9.0000E-02  4.5000E-02  4.5000E-02  4.5000E-02  4.5000E-02  4.5000E-02  4.5000E-02  4.5000E-02  4.5000E-02
       4.5000E-02  4.5000E-02  4.5000E-02  4.5000E-02  4.5000E-02  4.5000E-02  9.0000E-02  9.0000E-02  0.2700      9.0000E-02
       4.5000E-02  4.5000E-02   0.000       0.000       0.000       0.000       0.000       0.000       0.000    
  31    0.000       0.000       0.000       0.000       0.000       0.000       0.000       0.000       0.000       0.000    
        0.000       0.000       0.000       0.000       0.000       0.000       0.000       0.000      1.8000E-02  1.8000E-02
       1.8000E-02  1.8000E-02  1.8000E-02  3.6000E-02  3.6000E-02  3.6000E-02  3.6000E-02  3.6000E-02  3.6000E-02  3.6000E-02
       3.6000E-02  3.6000E-02  3.6000E-02  3.6000E-02  3.6000E-02  3.6000E-02  4.5000E-02  4.5000E-02  4.5000E-02  4.5000E-02
       4.5000E-02  4.5000E-02  4.5000E-02  9.0000E-02  4.5000E-02  4.5000E-02  4.5000E-02  4.5000E-02  4.5000E-02  4.5000E-02
       9.0000E-02  9.0000E-02  4.5000E-02  4.5000E-02  4.5000E-02  4.5000E-02  4.5000E-02  4.5000E-02  4.5000E-02  4.5000E-02
       4.5000E-02  4.5000E-02  4.5000E-02  4.5000E-02  4.5000E-02  4.5000E-02  9.0000E-02  9.0000E-02  0.2700      0.2700    
       4.5000E-02  4.5000E-02   0.000       0.000       0.000       0.000       0.000       0.000       0.000    
  32    0.000       0.000       0.000       0.000       0.000       0.000       0.000       0.000       0.000       0.000    
        0.000       0.000       0.000       0.000       0.000       0.000      1.8000E-02  1.8000E-02  1.8000E-02  1.8000E-02
       1.8000E-02  1.8000E-02  3.6000E-02  3.6000E-02  3.6000E-02  3.6000E-02  3.6000E-02  3.6000E-02  3.6000E-02  3.6000E-02
       3.6000E-02  3.6000E-02  3.6000E-02  3.6000E-02  3.6000E-02  3.6000E-02  4.5000E-02  4.5000E-02  0.2700      0.2700    
       0.2700      0.2700      0.2700      0.2700      4.5000E-02  4.5000E-02  4.5000E-02  4.5000E-02  4.5000E-02  4.5000E-02
       9.0000E-02  9.0000E-02  9.0000E-02  4.5000E-02  4.5000E-02  4.5000E-02  4.5000E-02  4.5000E-02  4.5000E-02  4.5000E-02
       4.5000E-02  4.5000E-02  4.5000E-02  4.5000E-02  4.5000E-02  4.5000E-02  4.5000E-02  9.0000E-02  9.0000E-02  0.2700    
       9.0000E-02  4.5000E-02   0.000       0.000       0.000       0.000       0.000       0.000       0.000    
  33    0.000       0.000       0.000       0.000       0.000       0.000       0.000       0.000       0.000       0.000    
        0.000       0.000       0.000       0.000       0.000      1.8000E-02  1.8000E-02  1.8000E-02  1.8000E-02  1.8000E-02
       1.8000E-02  1.8000E-02  3.6000E-02  3.6000E-02  3.6000E-02  3.6000E-02  3.6000E-02  3.6000E-02  3.6000E-02  3.6000E-02
       3.6000E-02  3.6000E-02  3.6000E-02  3.6000E-02  4.5000E-02  4.5000E-02  4.5000E-02  0.2700      0.2700      0.2700    
       0.2700      0.2700      0.2700      0.2700      0.2700      4.5000E-02  4.5000E-02  4.5000E-02  4.5000E-02  4.5000E-02
       9.0000E-02  9.0000E-02  9.0000E-02  9.0000E-02  9.0000E-02  9.0000E-02  4.5000E-02  4.5000E-02  4.5000E-02  4.5000E-02
       4.5000E-02  4.5000E-02  4.5000E-02  4.5000E-02  4.5000E-02  4.5000E-02  4.5000E-02  9.0000E-02  9.0000E-02  0.2700    
       9.0000E-02  4.5000E-02  4.5000E-02   0.000       0.000       0.000       0.000       0.000       0.000    
  34    0.000       0.000       0.000       0.000       0.000       0.000       0.000       0.000       0.000       0.000    
        0.000       0.000       0.000       0.000      1.8000E-02  1.8000E-02  1.8000E-02  1.8000E-02  1.8000E-02  1.8000E-02
       1.8000E-02  1.8000E-02  3.6000E-02  3.6000E-02  3.6000E-02  3.6000E-02  3.6000E-02  9.0000E-02  3.6000E-02  3.6000E-02
       3.6000E-02  3.6000E-02  3.6000E-02  3.6000E-02  4.5000E-02  4.5000E-02  0.2700      0.2700      0.2700      0.2700    
       0.2700      9.0000E-02  9.0000E-02  0.2700      0.2700      0.2700      0.2700      0.2700      0.2700      9.0000E-02
       9.0000E-02  9.0000E-02  0.2700      0.2700      0.2700      9.0000E-02  4.5000E-02  4.5000E-02  4.5000E-02  4.5000E-02
       4.5000E-02  4.5000E-02  4.5000E-02  4.5000E-02  4.5000E-02  4.5000E-02  4.5000E-02  9.0000E-02  9.0000E-02  9.0000E-02
       4.5000E-02  3.6000E-02  3.6000E-02   0.000       0.000       0.000       0.000       0.000       0.000    
  35    0.000       0.000       0.000       0.000       0.000       0.000       0.000       0.000       0.000       0.000    
        0.000       0.000       0.000      1.8000E-02  1.8000E-02  1.8000E-02  1.8000E-02  1.8000E-02  3.6000E-02  3.6000E-02
       3.6000E-02  3.6000E-02  3.6000E-02  3.6000E-02  9.0000E-02  9.0000E-02  9.0000E-02  9.0000E-02  9.0000E-02  9.0000E-02
       3.6000E-02  3.6000E-02  9.0000E-02  9.0000E-02  0.2700      0.2700      0.2700      0.2700      9.0000E-02  9.0000E-02
       9.0000E-02  9.0000E-02  9.0000E-02  9.0000E-02  0.2700      0.2700      0.2700      0.2700      0.2700      0.2700    
       0.2700      0.2700      0.2700      0.2700      0.2700      0.2700      4.5000E-02  4.5000E-02  4.5000E-02  4.5000E-02
       4.5000E-02  4.5000E-02  4.5000E-02  4.5000E-02  4.5000E-02  4.5000E-02  4.5000E-02  9.0000E-02  9.0000E-02  4.5000E-02
       4.5000E-02  3.6000E-02  1.8000E-02  1.8000E-02   0.000       0.000       0.000       0.000       0.000    
  36    0.000       0.000       0.000       0.000       0.000       0.000       0.000       0.000       0.000       0.000    
        0.000       0.000       0.000      1.8000E-02  1.8000E-02  1.8000E-02  1.8000E-02  3.6000E-02  3.6000E-02  3.6000E-02
       3.6000E-02  3.6000E-02  3.6000E-02  3.6000E-02  9.0000E-02  9.0000E-02  9.0000E-02  9.0000E-02  0.2700      0.2700    
       0.2700      0.2700      0.2700      0.2700      0.2700      0.2700      0.2700      0.2700      9.0000E-02  9.0000E-02
       9.0000E-02  9.0000E-02  9.0000E-02  9.0000E-02  0.2700      0.2700      0.2700      0.2700      0.2700      0.2700    
       0.2700      0.2700      0.2700      0.2700      0.2700      0.2700      0.2700      9.0000E-02  9.0000E-02  4.5000E-02
       4.5000E-02  4.5000E-02  9.0000E-02  9.0000E-02  4.5000E-02  4.5000E-02  4.5000E-02  9.0000E-02  9.0000E-02  4.5000E-02
       4.5000E-02  4.5000E-02  1.8000E-02  1.8000E-02  1.8000E-02   0.000       0.000       0.000       0.000    
  37    0.000       0.000       0.000       0.000       0.000       0.000       0.000       0.000       0.000       0.000    
        0.000       0.000      1.8000E-02  1.8000E-02  1.8000E-02  1.8000E-02  3.6000E-02  3.6000E-02  3.6000E-02  3.6000E-02
       3.6000E-02  3.6000E-02  3.6000E-02  9.0000E-02  0.2700      0.2700      0.2700      0.2700      0.2700      0.2700    
       0.2700      0.2700      0.2700      0.2700      0.2700      0.2700      0.2700      0.2700      4.5000E-02  4.5000E-02
       4.5000E-02  4.5000E-02  9.0000E-02  0.2700      0.2700      0.2700      0.2700      0.2700      0.2700      0.2700    
       0.2700      0.2700      0.2700      0.2700      0.2700      0.2700      0.2700      0.2700      0.2700      0.2700    
       0.2700      0.2700      9.0000E-02  9.0000E-02  9.0000E-02  9.0000E-02  9.0000E-02  9.0000E-02  9.0000E-02  9.0000E-02
       4.5000E-02  4.5000E-02  3.6000E-02  1.8000E-02  1.8000E-02   0.000       0.000       0.000       0.000    
  38    0.000       0.000       0.000       0.000       0.000       0.000       0.000       0.000       0.000       0.000    
       3.6000E-02  3.6000E-02  1.8000E-02  3.6000E-02  3.6000E-02  3.6000E-02  3.6000E-02  3.6000E-02  9.0000E-02  9.0000E-02
       9.0000E-02  9.0000E-02  9.0000E-02  9.0000E-02  9.0000E-02  0.2700      0.2700      0.2700      9.0000E-02  9.0000E-02
       0.2700      0.2700      0.2700      0.2700      0.2700      0.2700      0.2700      0.2700      4.5000E-02  4.5000E-02
       4.5000E-02  4.5000E-02  9.0000E-02  0.2700      0.2700      0.2700      4.5000E-02  9.0000E-02  9.0000E-02  9.0000E-02
       9.0000E-02  9.0000E-02  0.2700      0.2700      0.2700      0.2700      0.2700      0.2700      0.2700      0.2700    
       0.2700      0.2700      0.2700      0.2700      0.2700      0.2700      0.2700      0.2700      0.2700      9.0000E-02
       9.0000E-02  4.5000E-02  3.6000E-02  1.8000E-02  1.8000E-02  3.6000E-02   0.000       0.000       0.000    
  39    0.000       0.000       0.000       0.000       0.000       0.000       0.000      1.8000E-02  1.8000E-02  3.6000E-02
       3.6000E-02  3.6000E-02  3.6000E-02  3.6000E-02  9.0000E-02  9.0000E-02  9.0000E-02  9.0000E-02  9.0000E-02  9.0000E-02
       9.0000E-02  9.0000E-02  9.0000E-02  4.5000E-02  4.5000E-02  4.5000E-02  4.5000E-02  4.5000E-02  9.0000E-02  0.2700    
       0.2700      0.2700      0.2700      0.2700      0.2700      0.2700      0.2700      0.2700      4.5000E-02  4.5000E-02
       4.5000E-02  4.5000E-02  4.5000E-02  0.2700      0.2700      4.5000E-02  4.5000E-02  4.5000E-02  9.0000E-02  9.0000E-02
       9.0000E-02  9.0000E-02  9.0000E-02  9.0000E-02  9.0000E-02  9.0000E-02  9.0000E-02  9.0000E-02  9.0000E-02  0.2700    
       0.2700      0.2700      0.2700      0.2700      0.2700      0.2700      0.2700      0.2700      0.2700      0.2700    
       0.2700      0.2700      9.0000E-02  3.6000E-02  3.6000E-02  0.8100       0.000       0.000       0.000    
  40    0.000       0.000       0.000       0.000       0.000       0.000      1.8000E-02  1.8000E-02  1.8000E-02  3.6000E-02
       3.6000E-02  3.6000E-02  9.0000E-02  9.0000E-02  9.0000E-02  9.0000E-02  9.0000E-02  9.0000E-02  3.6000E-02  3.6000E-02
       3.6000E-02  3.6000E-02  4.5000E-02  4.5000E-02  4.5000E-02  4.5000E-02  4.5000E-02  4.5000E-02  0.2700      0.2700    
       0.2700      0.2700      0.2700      0.2700      0.2700      0.2700      0.2700      0.2700      4.5000E-02  4.5000E-02
       4.5000E-02  4.5000E-02  4.5000E-02  0.2700      0.2700      4.5000E-02  4.5000E-02  4.5000E-02  4.5000E-02  9.0000E-02
       9.0000E-02  9.0000E-02  9.0000E-02  9.0000E-02  9.0000E-02  9.0000E-02  4.5000E-02  4.5000E-02  9.0000E-02  0.2700    
       0.2700      9.0000E-02  9.0000E-02  9.0000E-02  9.0000E-02  0.2700      0.2700      0.2700      0.2700      0.2700    
       0.2700      0.2700      0.2700      0.2700      0.2700      0.8100       0.000       0.000       0.000    
  41    0.000       0.000       0.000       0.000       0.000      1.8000E-02  1.8000E-02  1.8000E-02  3.6000E-02  3.6000E-02
       3.6000E-02  3.6000E-02  9.0000E-02  9.0000E-02  3.6000E-02  3.6000E-02  3.6000E-02  3.6000E-02  3.6000E-02  3.6000E-02
       3.6000E-02  4.5000E-02  4.5000E-02  4.5000E-02  4.5000E-02  4.5000E-02  4.5000E-02  4.5000E-02  0.2700      0.2700    
       9.0000E-02  9.0000E-02  9.0000E-02  0.2700      0.2700      0.2700      0.2700      0.2700      4.5000E-02  4.5000E-02
       4.5000E-02  4.5000E-02  4.5000E-02  0.2700      0.2700      0.2700      4.5000E-02  4.5000E-02  4.5000E-02  9.0000E-02
       9.0000E-02  9.0000E-02  3.6000E-02  3.6000E-02  3.6000E-02  3.6000E-02  4.5000E-02  4.5000E-02  4.5000E-02  0.2700    
       0.2700      9.0000E-02  4.5000E-02  9.0000E-02  9.0000E-02  9.0000E-02  4.5000E-02  4.5000E-02  0.2700      0.2700    
       0.2700      0.2700      0.2700      0.2700      0.2700       0.000       0.000       0.000       0.000    
  42    0.000       0.000       0.000       0.000       0.000      1.8000E-02  1.8000E-02  1.8000E-02  3.6000E-02  3.6000E-02
       3.6000E-02  3.6000E-02  3.6000E-02  3.6000E-02  3.6000E-02  3.6000E-02  3.6000E-02  3.6000E-02  3.6000E-02  4.5000E-02
       4.5000E-02  4.5000E-02  4.5000E-02  0.2700      0.2700      0.2700      0.2700      0.2700      0.2700      9.0000E-02
       9.0000E-02  9.0000E-02  9.0000E-02  9.0000E-02  0.2700      0.2700      0.2700      0.2700      4.5000E-02  4.5000E-02
       4.5000E-02  4.5000E-02  4.5000E-02  9.0000E-02  0.2700      0.2700      4.5000E-02  4.5000E-02  4.5000E-02  4.5000E-02
       3.6000E-02  3.6000E-02  3.6000E-02  3.6000E-02  3.6000E-02  3.6000E-02  3.6000E-02  4.5000E-02  4.5000E-02  0.2700    
       0.2700      9.0000E-02  4.5000E-02  4.5000E-02  4.5000E-02  4.5000E-02  4.5000E-02  4.5000E-02  4.5000E-02  9.0000E-02
       0.2700      0.2700      0.2700      0.2700      0.2700       0.000       0.000       0.000       0.000    
  43    0.000       0.000       0.000       0.000       0.000      1.8000E-02  1.8000E-02  1.8000E-02  3.6000E-02  3.6000E-02
       3.6000E-02  3.6000E-02  3.6000E-02  3.6000E-02  3.6000E-02  3.6000E-02  3.6000E-02  3.6000E-02  3.6000E-02  4.5000E-02
       4.5000E-02  4.5000E-02  0.2700      0.2700      0.2700      9.0000E-02  9.0000E-02  9.0000E-02  9.0000E-02  9.0000E-02
       9.0000E-02  9.0000E-02  9.0000E-02  9.0000E-02  0.2700      0.2700      0.2700      4.5000E-02  4.5000E-02  4.5000E-02
       4.5000E-02  4.5000E-02  4.5000E-02  9.0000E-02  0.2700      0.2700      4.5000E-02  4.5000E-02  4.5000E-02  4.5000E-02
       3.6000E-02  3.6000E-02  3.6000E-02  3.6000E-02  3.6000E-02  3.6000E-02  3.6000E-02  4.5000E-02  4.5000E-02  0.2700    
       0.2700      4.5000E-02  4.5000E-02  4.5000E-02  4.5000E-02  4.5000E-02  4.5000E-02  4.5000E-02  4.5000E-02  9.0000E-02
       0.2700      0.2700      0.2700      0.2700      9.0000E-02   0.000       0.000       0.000       0.000    
  44    0.000       0.000       0.000       0.000       0.000      1.8000E-02  1.8000E-02  1.8000E-02  1.8000E-02  3.6000E-02
       3.6000E-02  3.6000E-02  3.6000E-02  3.6000E-02  3.6000E-02  4.5000E-02  4.5000E-02  4.5000E-02  4.5000E-02  9.0000E-02
       9.0000E-02  0.2700      0.2700      9.0000E-02  9.0000E-02  9.0000E-02  9.0000E-02  9.0000E-02  9.0000E-02  9.0000E-02
       9.0000E-02  9.0000E-02  9.0000E-02  9.0000E-02  0.2700      0.2700      0.2700      4.5000E-02  4.5000E-02  4.5000E-02
       4.5000E-02  4.5000E-02  3.6000E-02  3.6000E-02  0.2700      0.2700      4.5000E-02  4.5000E-02  4.5000E-02  4.5000E-02
       4.5000E-02  3.6000E-02  1.8000E-02  1.8000E-02  1.8000E-02  3.6000E-02  3.6000E-02  4.5000E-02  4.5000E-02  9.0000E-02
       0.2700      4.5000E-02  4.5000E-02  4.5000E-02  4.5000E-02  4.5000E-02  4.5000E-02  4.5000E-02  4.5000E-02  9.0000E-02
       9.0000E-02  0.2700      0.2700      9.0000E-02  9.0000E-02   0.000       0.000       0.000       0.000    
  45    0.000       0.000       0.000      1.8000E-02  1.8000E-02  1.8000E-02  1.8000E-02  1.8000E-02  3.6000E-02  3.6000E-02
       3.6000E-02  3.6000E-02  3.6000E-02  3.6000E-02  9.0000E-02  9.0000E-02  9.0000E-02  9.0000E-02  9.0000E-02  0.2700    
       0.2700      0.2700      9.0000E-02  9.0000E-02  9.0000E-02  9.0000E-02  9.0000E-02  9.0000E-02  9.0000E-02  9.0000E-02
       9.0000E-02  9.0000E-02  9.0000E-02  9.0000E-02  0.2700      0.2700      0.2700      9.0000E-02  3.6000E-02  3.6000E-02
       3.6000E-02  3.6000E-02  3.6000E-02  3.6000E-02  0.2700      0.2700      4.5000E-02  4.5000E-02  1.8000E-02  1.8000E-02
       1.8000E-02  1.8000E-02  1.8000E-02  1.8000E-02  1.8000E-02  3.6000E-02  3.6000E-02  4.5000E-02  4.5000E-02  9.0000E-02
       0.2700      4.5000E-02  4.5000E-02  4.5000E-02  4.5000E-02  4.5000E-02  4.5000E-02  4.5000E-02  4.5000E-02  9.0000E-02
       9.0000E-02  0.2700      0.2700      4.5000E-02  3.6000E-02   0.000       0.000       0.000       0.000    
  46    0.000       0.000       0.000      1.8000E-02  1.8000E-02  1.8000E-02  1.8000E-02  1.8000E-02  3.6000E-02  3.6000E-02
       3.6000E-02  9.0000E-02  9.0000E-02  9.0000E-02  9.0000E-02  9.0000E-02  0.2700      0.2700      0.2700      0.2700    
       0.2700      9.0000E-02  9.0000E-02  9.0000E-02  9.0000E-02  9.0000E-02  9.0000E-02  9.0000E-02  9.0000E-02  9.0000E-02
       9.0000E-02  9.0000E-02  9.0000E-02  9.0000E-02  0.2700      0.2700      0.2700      4.5000E-02  3.6000E-02  3.6000E-02
       3.6000E-02  3.6000E-02  3.6000E-02  3.6000E-02  0.2700      0.2700      4.5000E-02  4.5000E-02  1.8000E-02  1.8000E-02
       1.8000E-02  1.8000E-02  1.8000E-02  1.8000E-02  1.8000E-02  3.6000E-02  3.6000E-02  4.5000E-02  4.5000E-02  9.0000E-02
       9.0000E-02  4.5000E-02  4.5000E-02  4.5000E-02  4.5000E-02  4.5000E-02  4.5000E-02  4.5000E-02  4.5000E-02  9.0000E-02
       9.0000E-02  0.2700      9.0000E-02  4.5000E-02  4.5000E-02   0.000       0.000       0.000       0.000    
  47    0.000       0.000       0.000      1.8000E-02  1.8000E-02  1.8000E-02  1.8000E-02  3.6000E-02  3.6000E-02  3.6000E-02
       3.6000E-02  9.0000E-02  9.0000E-02  9.0000E-02  0.2700      0.2700      0.2700      9.0000E-02  9.0000E-02  9.0000E-02
       9.0000E-02  9.0000E-02  9.0000E-02  9.0000E-02  9.0000E-02  9.0000E-02  9.0000E-02  9.0000E-02  9.0000E-02  4.5000E-02
       9.0000E-02  9.0000E-02  9.0000E-02  9.0000E-02  0.2700      0.2700      0.2700      4.5000E-02  3.6000E-02  3.6000E-02
       3.6000E-02  3.6000E-02  3.6000E-02  3.6000E-02  0.2700      0.2700      4.5000E-02  4.5000E-02  1.8000E-02  1.8000E-02
       1.8000E-02  1.8000E-02  1.8000E-02  1.8000E-02  1.8000E-02  3.6000E-02  3.6000E-02  3.6000E-02  4.5000E-02  4.5000E-02
       9.0000E-02  4.5000E-02  4.5000E-02  4.5000E-02  4.5000E-02  4.5000E-02  4.5000E-02  4.5000E-02  4.5000E-02  9.0000E-02
       9.0000E-02  0.2700      9.0000E-02  4.5000E-02  4.5000E-02   0.000       0.000       0.000       0.000    
  48    0.000       0.000       0.000      1.8000E-02  1.8000E-02  1.8000E-02  1.8000E-02  3.6000E-02  3.6000E-02  3.6000E-02
       3.6000E-02  9.0000E-02  0.2700      0.2700      0.2700      9.0000E-02  9.0000E-02  9.0000E-02  9.0000E-02  9.0000E-02
       9.0000E-02  9.0000E-02  9.0000E-02  9.0000E-02  4.5000E-02  4.5000E-02  4.5000E-02  4.5000E-02  4.5000E-02  4.5000E-02
       9.0000E-02  9.0000E-02  9.0000E-02  9.0000E-02  0.2700      0.2700      0.2700      0.2700      3.6000E-02  3.6000E-02
       3.6000E-02  3.6000E-02  3.6000E-02  3.6000E-02  0.2700      0.2700      4.5000E-02  4.5000E-02  4.5000E-02  1.8000E-02
       1.8000E-02  1.8000E-02  1.8000E-02  1.8000E-02  1.8000E-02  1.8000E-02  3.6000E-02  3.6000E-02  4.5000E-02  4.5000E-02
       9.0000E-02  9.0000E-02  4.5000E-02  4.5000E-02  4.5000E-02  4.5000E-02  4.5000E-02  4.5000E-02  4.5000E-02  9.0000E-02
       0.2700      0.2700      9.0000E-02  4.5000E-02  4.5000E-02  4.5000E-02   0.000       0.000       0.000    
  49    0.000       0.000       0.000      1.8000E-02  1.8000E-02  1.8000E-02  1.8000E-02  3.6000E-02  3.6000E-02  3.6000E-02
       9.0000E-02  0.2700      0.2700      9.0000E-02  9.0000E-02  9.0000E-02  9.0000E-02  9.0000E-02  9.0000E-02  4.5000E-02
       4.5000E-02  4.5000E-02  4.5000E-02  4.5000E-02  4.5000E-02  4.5000E-02  4.5000E-02  4.5000E-02  4.5000E-02  4.5000E-02
       9.0000E-02  9.0000E-02  9.0000E-02  9.0000E-02  0.2700      0.2700      0.2700      0.2700      0.2700      3.6000E-02
       3.6000E-02  3.6000E-02  3.6000E-02  3.6000E-02  3.6000E-02  0.2700      0.2700      9.0000E-02  4.5000E-02  1.8000E-02
       1.8000E-02  1.8000E-02  1.8000E-02  1.8000E-02  1.8000E-02  1.8000E-02  3.6000E-02  3.6000E-02  4.5000E-02  4.5000E-02
       9.0000E-02  9.0000E-02  4.5000E-02  4.5000E-02  4.5000E-02  4.5000E-02  4.5000E-02  4.5000E-02  4.5000E-02  9.0000E-02
       0.2700      0.2700      9.0000E-02  4.5000E-02  4.5000E-02  4.5000E-02   0.000       0.000       0.000    
  50    0.000       0.000       0.000      1.8000E-02  1.8000E-02  1.8000E-02  3.6000E-02  3.6000E-02  3.6000E-02  3.6000E-02
       0.2700      0.2700      0.2700      0.2700      9.0000E-02  4.5000E-02  4.5000E-02  4.5000E-02  4.5000E-02  4.5000E-02
       4.5000E-02  4.5000E-02  4.5000E-02  4.5000E-02  4.5000E-02  4.5000E-02  4.5000E-02  4.5000E-02  4.5000E-02  4.5000E-02
       4.5000E-02  9.0000E-02  9.0000E-02  9.0000E-02  9.0000E-02  0.2700      0.2700      0.2700      0.2700      0.2700    
       3.6000E-02  3.6000E-02  3.6000E-02  3.6000E-02  3.6000E-02  3.6000E-02  0.2700      0.2700      9.0000E-02  1.8000E-02
       1.8000E-02  1.8000E-02  1.8000E-02  1.8000E-02  1.8000E-02  1.8000E-02  3.6000E-02  3.6000E-02  4.5000E-02  4.5000E-02
       9.0000E-02  9.0000E-02  4.5000E-02  4.5000E-02  4.5000E-02  4.5000E-02  4.5000E-02  4.5000E-02  4.5000E-02  9.0000E-02
       0.2700      0.2700      9.0000E-02  9.0000E-02  4.5000E-02  4.5000E-02   0.000       0.000       0.000    
  51    0.000       0.000       0.000      1.8000E-02  1.8000E-02  3.6000E-02  3.6000E-02  3.6000E-02  3.6000E-02  0.2700    
       0.2700      0.2700      0.2700      9.0000E-02  9.0000E-02  3.6000E-02  3.6000E-02  4.5000E-02  4.5000E-02  4.5000E-02
       4.5000E-02  4.5000E-02  4.5000E-02  4.5000E-02  4.5000E-02  4.5000E-02  4.5000E-02  4.5000E-02  4.5000E-02  4.5000E-02
       4.5000E-02  9.0000E-02  9.0000E-02  9.0000E-02  9.0000E-02  0.2700      0.2700      0.2700      0.2700      0.2700    
       3.6000E-02  3.6000E-02  3.6000E-02  3.6000E-02  3.6000E-02  3.6000E-02  0.2700      0.2700      0.2700      1.8000E-02
       1.8000E-02  1.8000E-02  1.8000E-02  1.8000E-02  1.8000E-02  1.8000E-02  3.6000E-02  3.6000E-02  4.5000E-02  4.5000E-02
       9.0000E-02  9.0000E-02  9.0000E-02  4.5000E-02  4.5000E-02  4.5000E-02  4.5000E-02  4.5000E-02  4.5000E-02  9.0000E-02
       0.2700      0.2700      9.0000E-02  9.0000E-02  4.5000E-02  4.5000E-02   0.000       0.000       0.000    
  52    0.000       0.000      1.8000E-02  1.8000E-02  1.8000E-02  3.6000E-02  3.6000E-02  3.6000E-02  3.6000E-02  0.2700    
       0.2700      0.2700      9.0000E-02  3.6000E-02  3.6000E-02  3.6000E-02  3.6000E-02  3.6000E-02  3.6000E-02  4.5000E-02
       4.5000E-02  4.5000E-02  4.5000E-02  4.5000E-02  4.5000E-02  4.5000E-02  4.5000E-02  4.5000E-02  4.5000E-02  4.5000E-02
       4.5000E-02  9.0000E-02  9.0000E-02  9.0000E-02  9.0000E-02  0.2700      0.2700      0.2700      0.2700      0.2700    
       3.6000E-02  3.6000E-02  3.6000E-02  3.6000E-02  3.6000E-02  3.6000E-02  3.6000E-02  0.2700      0.2700      1.8000E-02
       1.8000E-02  1.8000E-02  1.8000E-02  1.8000E-02  1.8000E-02  1.8000E-02  3.6000E-02  3.6000E-02  3.6000E-02  4.5000E-02
       9.0000E-02  9.0000E-02  9.0000E-02  4.5000E-02  4.5000E-02  4.5000E-02  4.5000E-02  4.5000E-02  4.5000E-02  9.0000E-02
       0.2700      0.2700      0.2700      9.0000E-02  4.5000E-02  4.5000E-02   0.000       0.000       0.000    
  53    0.000       0.000      1.8000E-02  1.8000E-02  1.8000E-02  3.6000E-02  3.6000E-02  3.6000E-02  0.2700      0.2700    
       0.2700      9.0000E-02  3.6000E-02  3.6000E-02  3.6000E-02  3.6000E-02  3.6000E-02  3.6000E-02  3.6000E-02  3.6000E-02
       3.6000E-02  4.5000E-02  4.5000E-02  4.5000E-02  4.5000E-02  4.5000E-02  4.5000E-02  4.5000E-02  4.5000E-02  4.5000E-02
       4.5000E-02  9.0000E-02  9.0000E-02  9.0000E-02  9.0000E-02  0.2700      0.2700      0.2700      0.2700      3.6000E-02
       3.6000E-02  3.6000E-02  3.6000E-02  3.6000E-02  3.6000E-02  3.6000E-02  3.6000E-02  0.2700      9.0000E-02  0.2700    
       1.8000E-02  1.8000E-02  1.8000E-02  1.8000E-02  1.8000E-02  1.8000E-02  1.8000E-02  3.6000E-02  3.6000E-02  4.5000E-02
       9.0000E-02  9.0000E-02  9.0000E-02  4.5000E-02  4.5000E-02  4.5000E-02  4.5000E-02  4.5000E-02  4.5000E-02  9.0000E-02
       9.0000E-02  0.2700      0.2700      9.0000E-02  4.5000E-02  4.5000E-02  4.5000E-02   0.000       0.000    
  54    0.000       0.000      1.8000E-02  1.8000E-02  1.8000E-02  3.6000E-02  3.6000E-02  3.6000E-02  0.2700      0.2700    
       0.2700      3.6000E-02  3.6000E-02  3.6000E-02  3.6000E-02  3.6000E-02  3.6000E-02  3.6000E-02  3.6000E-02  3.6000E-02
       3.6000E-02  4.5000E-02  4.5000E-02  4.5000E-02  4.5000E-02  4.5000E-02  4.5000E-02  4.5000E-02  4.5000E-02  4.5000E-02
       4.5000E-02  9.0000E-02  9.0000E-02  9.0000E-02  9.0000E-02  0.2700      0.2700      0.2700      0.2700      4.5000E-02
       3.6000E-02  3.6000E-02  3.6000E-02  1.8000E-02  1.8000E-02  1.8000E-02  3.6000E-02  9.0000E-02  9.0000E-02  9.0000E-02
       1.8000E-02  1.8000E-02  1.8000E-02  1.8000E-02  1.8000E-02  1.8000E-02  1.8000E-02  3.6000E-02  3.6000E-02  4.5000E-02
       9.0000E-02  9.0000E-02  9.0000E-02  4.5000E-02  4.5000E-02  4.5000E-02  4.5000E-02  4.5000E-02  4.5000E-02  9.0000E-02
       9.0000E-02  9.0000E-02  9.0000E-02  9.0000E-02  4.5000E-02  4.5000E-02  4.5000E-02   0.000       0.000    
  55    0.000      1.8000E-02  1.8000E-02  1.8000E-02  3.6000E-02  3.6000E-02  3.6000E-02  9.0000E-02  9.0000E-02  9.0000E-02
       9.0000E-02  3.6000E-02  3.6000E-02  3.6000E-02  3.6000E-02  3.6000E-02  3.6000E-02  3.6000E-02  3.6000E-02  3.6000E-02
       3.6000E-02  3.6000E-02  4.5000E-02  4.5000E-02  4.5000E-02  4.5000E-02  4.5000E-02  4.5000E-02  4.5000E-02  4.5000E-02
       4.5000E-02  4.5000E-02  9.0000E-02  9.0000E-02  9.0000E-02  0.2700      0.2700      0.2700      0.2700      4.5000E-02
       3.6000E-02  1.8000E-02  1.8000E-02  1.8000E-02  1.8000E-02  1.8000E-02  3.6000E-02  9.0000E-02  9.0000E-02  9.0000E-02
       1.8000E-02  1.8000E-02  1.8000E-02  1.8000E-02  1.8000E-02  1.8000E-02  1.8000E-02  3.6000E-02  3.6000E-02  4.5000E-02
       9.0000E-02  9.0000E-02  9.0000E-02  4.5000E-02  4.5000E-02  4.5000E-02  4.5000E-02  4.5000E-02  4.5000E-02  9.0000E-02
       9.0000E-02  9.0000E-02  9.0000E-02  9.0000E-02  9.0000E-02  4.5000E-02  4.5000E-02   0.000       0.000    
  56    0.000      1.8000E-02  1.8000E-02  3.6000E-02  3.6000E-02  3.6000E-02  9.0000E-02  9.0000E-02  9.0000E-02  9.0000E-02
       9.0000E-02  3.6000E-02  3.6000E-02  3.6000E-02  3.6000E-02  3.6000E-02  3.6000E-02  3.6000E-02  3.6000E-02  3.6000E-02
       3.6000E-02  3.6000E-02  3.6000E-02  4.5000E-02  4.5000E-02  4.5000E-02  4.5000E-02  4.5000E-02  4.5000E-02  4.5000E-02
       4.5000E-02  4.5000E-02  9.0000E-02  9.0000E-02  9.0000E-02  0.2700      0.2700      0.2700      0.2700      4.5000E-02
       3.6000E-02  1.8000E-02  1.8000E-02  1.8000E-02  1.8000E-02  1.8000E-02  3.6000E-02  9.0000E-02  9.0000E-02  9.0000E-02
       1.8000E-02  1.8000E-02  1.8000E-02  1.8000E-02  1.8000E-02  1.8000E-02  1.8000E-02  3.6000E-02  3.6000E-02  4.5000E-02
       9.0000E-02  9.0000E-02  9.0000E-02  4.5000E-02  4.5000E-02  3.6000E-02  3.6000E-02  3.6000E-02  4.5000E-02  4.5000E-02
       9.0000E-02  9.0000E-02  9.0000E-02  9.0000E-02  9.0000E-02  4.5000E-02  4.5000E-02   0.000       0.000    
  57   1.8000E-02  1.8000E-02  3.6000E-02  3.6000E-02  3.6000E-02  9.0000E-02  9.0000E-02  9.0000E-02  9.0000E-02  3.6000E-02
       3.6000E-02  3.6000E-02  3.6000E-02  3.6000E-02  3.6000E-02  3.6000E-02  3.6000E-02  3.6000E-02  3.6000E-02  3.6000E-02
       3.6000E-02  3.6000E-02  3.6000E-02  3.6000E-02  3.6000E-02  3.6000E-02  4.5000E-02  4.5000E-02  4.5000E-02  4.5000E-02
       4.5000E-02  4.5000E-02  9.0000E-02  9.0000E-02  9.0000E-02  0.2700      0.2700      0.2700      4.5000E-02  4.5000E-02
       3.6000E-02  1.8000E-02  1.8000E-02  1.8000E-02  1.8000E-02  1.8000E-02  3.6000E-02  9.0000E-02  9.0000E-02  9.0000E-02
       1.8000E-02  1.8000E-02  1.8000E-02  1.8000E-02  1.8000E-02  1.8000E-02  1.8000E-02  3.6000E-02  3.6000E-02  3.6000E-02
       4.5000E-02  9.0000E-02  9.0000E-02  4.5000E-02  4.5000E-02  3.6000E-02  3.6000E-02  3.6000E-02  4.5000E-02  4.5000E-02
       9.0000E-02  9.0000E-02  4.5000E-02  4.5000E-02  4.5000E-02  4.5000E-02  4.5000E-02   0.000       0.000    
  58   1.8000E-02  1.8000E-02  3.6000E-02  3.6000E-02  3.6000E-02  9.0000E-02  3.6000E-02  3.6000E-02  3.6000E-02  3.6000E-02
       3.6000E-02  3.6000E-02  3.6000E-02  3.6000E-02  3.6000E-02  3.6000E-02  1.8000E-02  3.6000E-02  3.6000E-02  3.6000E-02
       3.6000E-02  3.6000E-02  3.6000E-02  3.6000E-02  3.6000E-02  3.6000E-02  3.6000E-02  4.5000E-02  4.5000E-02  4.5000E-02
       4.5000E-02  4.5000E-02  9.0000E-02  9.0000E-02  9.0000E-02  0.2700      0.2700      0.2700      4.5000E-02  4.5000E-02
       3.6000E-02  1.8000E-02  1.8000E-02  1.8000E-02  1.8000E-02  1.8000E-02  1.8000E-02  3.6000E-02  9.0000E-02  9.0000E-02
       9.0000E-02  4.5000E-02  3.6000E-02  1.8000E-02  1.8000E-02  1.8000E-02  1.8000E-02  3.6000E-02  3.6000E-02  3.6000E-02
       4.5000E-02  9.0000E-02  4.5000E-02  4.5000E-02  4.5000E-02  3.6000E-02  3.6000E-02  3.6000E-02  4.5000E-02  9.0000E-02
       9.0000E-02  9.0000E-02  4.5000E-02  4.5000E-02  4.5000E-02  4.5000E-02  4.5000E-02   0.000       0.000    
  59   1.8000E-02  1.8000E-02  3.6000E-02  3.6000E-02  3.6000E-02  3.6000E-02  3.6000E-02  3.6000E-02  3.6000E-02  3.6000E-02
       3.6000E-02  1.8000E-02  1.8000E-02  1.8000E-02  1.8000E-02  1.8000E-02  1.8000E-02  3.6000E-02  3.6000E-02  3.6000E-02
       3.6000E-02  3.6000E-02  3.6000E-02  3.6000E-02  3.6000E-02  3.6000E-02  3.6000E-02  3.6000E-02  4.5000E-02  4.5000E-02
       4.5000E-02  4.5000E-02  9.0000E-02  9.0000E-02  9.0000E-02  9.0000E-02  0.2700      0.2700      0.2700      4.5000E-02
       3.6000E-02  3.6000E-02  1.8000E-02  1.8000E-02  1.8000E-02  1.8000E-02  1.8000E-02  3.6000E-02  9.0000E-02  3.6000E-02
       9.0000E-02  4.5000E-02  3.6000E-02  1.8000E-02  1.8000E-02  1.8000E-02  1.8000E-02  3.6000E-02  3.6000E-02  3.6000E-02
       4.5000E-02  4.5000E-02  4.5000E-02  3.6000E-02  3.6000E-02  3.6000E-02  3.6000E-02  3.6000E-02  4.5000E-02  9.0000E-02
       9.0000E-02  9.0000E-02  4.5000E-02  4.5000E-02  4.5000E-02  4.5000E-02  4.5000E-02  4.5000E-02   0.000    
  60    0.000      1.8000E-02  1.8000E-02  3.6000E-02  3.6000E-02  3.6000E-02  1.8000E-02  1.8000E-02  1.8000E-02  1.8000E-02
       1.8000E-02  1.8000E-02  1.8000E-02   0.000       0.000       0.000      1.8000E-02  1.8000E-02  3.6000E-02  3.6000E-02
       3.6000E-02  3.6000E-02  3.6000E-02  3.6000E-02  3.6000E-02  3.6000E-02  3.6000E-02  3.6000E-02  3.6000E-02  4.5000E-02
       4.5000E-02  4.5000E-02  4.5000E-02  9.0000E-02  9.0000E-02  9.0000E-02  0.2700      0.2700      0.2700      4.5000E-02
       3.6000E-02  3.6000E-02  1.8000E-02  1.8000E-02  1.8000E-02  1.8000E-02  1.8000E-02  3.6000E-02  3.6000E-02  3.6000E-02
       9.0000E-02  4.5000E-02  3.6000E-02  1.8000E-02  3.6000E-02  3.6000E-02  3.6000E-02  3.6000E-02  3.6000E-02  4.5000E-02
       4.5000E-02  4.5000E-02  3.6000E-02  3.6000E-02  3.6000E-02  3.6000E-02  3.6000E-02  3.6000E-02  4.5000E-02  9.0000E-02
       9.0000E-02  4.5000E-02  4.5000E-02  4.5000E-02  4.5000E-02  4.5000E-02  4.5000E-02  4.5000E-02  4.5000E-02
  61    0.000       0.000      1.8000E-02  1.8000E-02  1.8000E-02  1.8000E-02  1.8000E-02  1.8000E-02  1.8000E-02  1.8000E-02
       1.8000E-02   0.000       0.000       0.000       0.000       0.000       0.000      1.8000E-02  1.8000E-02  3.6000E-02
       3.6000E-02  3.6000E-02  3.6000E-02  3.6000E-02  3.6000E-02  3.6000E-02  3.6000E-02  3.6000E-02  3.6000E-02  3.6000E-02
       4.5000E-02  4.5000E-02  4.5000E-02  9.0000E-02  9.0000E-02  9.0000E-02  0.2700      0.2700      0.2700      4.5000E-02
       3.6000E-02  3.6000E-02  1.8000E-02  1.8000E-02  1.8000E-02  1.8000E-02  1.8000E-02  1.8000E-02  3.6000E-02  3.6000E-02
       9.0000E-02  9.0000E-02  3.6000E-02  3.6000E-02  3.6000E-02  3.6000E-02  3.6000E-02  3.6000E-02  3.6000E-02  3.6000E-02
       3.6000E-02  3.6000E-02  3.6000E-02  3.6000E-02  3.6000E-02  3.6000E-02  3.6000E-02  3.6000E-02  4.5000E-02  9.0000E-02
       9.0000E-02  4.5000E-02  4.5000E-02  4.5000E-02  4.5000E-02  4.5000E-02  4.5000E-02  4.5000E-02  4.5000E-02
  62    0.000       0.000       0.000      1.8000E-02   0.000       0.000       0.000       0.000       0.000       0.000    
        0.000       0.000       0.000       0.000       0.000       0.000       0.000       0.000       0.000      1.8000E-02
       3.6000E-02  3.6000E-02  3.6000E-02  3.6000E-02  3.6000E-02  3.6000E-02  3.6000E-02  3.6000E-02  3.6000E-02  3.6000E-02
       4.5000E-02  4.5000E-02  4.5000E-02  9.0000E-02  9.0000E-02  9.0000E-02  0.2700      0.2700      9.0000E-02  4.5000E-02
       3.6000E-02  3.6000E-02  1.8000E-02  1.8000E-02  1.8000E-02  1.8000E-02  1.8000E-02  1.8000E-02  3.6000E-02  3.6000E-02
       3.6000E-02  3.6000E-02  9.0000E-02  3.6000E-02  3.6000E-02  3.6000E-02  3.6000E-02  3.6000E-02  3.6000E-02  3.6000E-02
       3.6000E-02  3.6000E-02  3.6000E-02  3.6000E-02  3.6000E-02  3.6000E-02  3.6000E-02  3.6000E-02  4.5000E-02  9.0000E-02
       4.5000E-02  4.5000E-02  4.5000E-02  4.5000E-02  4.5000E-02  4.5000E-02  4.5000E-02  3.6000E-02  3.6000E-02
  63    0.000       0.000       0.000       0.000       0.000       0.000       0.000       0.000       0.000       0.000    
        0.000       0.000       0.000       0.000       0.000       0.000       0.000       0.000       0.000      1.8000E-02
       1.8000E-02  1.8000E-02  3.6000E-02  3.6000E-02  3.6000E-02  3.6000E-02  3.6000E-02  3.6000E-02  3.6000E-02  3.6000E-02
       3.6000E-02  4.5000E-02  4.5000E-02  9.0000E-02  9.0000E-02  9.0000E-02  0.2700      0.2700      9.0000E-02  4.5000E-02
       4.5000E-02  3.6000E-02  3.6000E-02  1.8000E-02  1.8000E-02  1.8000E-02  1.8000E-02  1.8000E-02  1.8000E-02  1.8000E-02
       3.6000E-02  3.6000E-02  9.0000E-02  9.0000E-02  3.6000E-02  3.6000E-02  3.6000E-02  3.6000E-02  3.6000E-02  3.6000E-02
       3.6000E-02  3.6000E-02  3.6000E-02  3.6000E-02  3.6000E-02  3.6000E-02  3.6000E-02  3.6000E-02  4.5000E-02  4.5000E-02
       4.5000E-02  4.5000E-02  4.5000E-02  4.5000E-02  4.5000E-02  4.5000E-02  4.5000E-02  3.6000E-02  3.6000E-02
  64    0.000       0.000       0.000       0.000       0.000       0.000       0.000       0.000       0.000       0.000    
        0.000       0.000       0.000       0.000       0.000       0.000       0.000       0.000       0.000       0.000    
        0.000       0.000       0.000       0.000      3.6000E-02  3.6000E-02  3.6000E-02  3.6000E-02  3.6000E-02  3.6000E-02
       3.6000E-02  3.6000E-02  4.5000E-02  4.5000E-02  9.0000E-02  9.0000E-02  9.0000E-02  0.2700      0.2700      9.0000E-02
       3.6000E-02  3.6000E-02  3.6000E-02  1.8000E-02  1.8000E-02  1.8000E-02  1.8000E-02  1.8000E-02  1.8000E-02  1.8000E-02
       3.6000E-02  3.6000E-02  4.5000E-02  9.0000E-02  3.6000E-02  3.6000E-02  3.6000E-02  3.6000E-02  3.6000E-02  3.6000E-02
       3.6000E-02  3.6000E-02  3.6000E-02  3.6000E-02  3.6000E-02  3.6000E-02  3.6000E-02  4.5000E-02  4.5000E-02  4.5000E-02
       4.5000E-02  4.5000E-02  4.5000E-02  4.5000E-02  4.5000E-02  4.5000E-02  3.6000E-02  3.6000E-02  3.6000E-02
  65    0.000       0.000       0.000       0.000       0.000       0.000       0.000       0.000       0.000       0.000    
        0.000       0.000       0.000       0.000       0.000       0.000       0.000       0.000       0.000       0.000    
        0.000       0.000       0.000       0.000       0.000       0.000       0.000       0.000       0.000       0.000    
        0.000       0.000       0.000      4.5000E-02  9.0000E-02  9.0000E-02  9.0000E-02  9.0000E-02  9.0000E-02  9.0000E-02
       3.6000E-02  3.6000E-02  3.6000E-02  1.8000E-02  1.8000E-02   0.000       0.000       0.000       0.000      1.8000E-02
       1.8000E-02  3.6000E-02  4.5000E-02  4.5000E-02  3.6000E-02  3.6000E-02  3.6000E-02  3.6000E-02  3.6000E-02  3.6000E-02
       3.6000E-02  3.6000E-02  3.6000E-02  3.6000E-02  3.6000E-02  3.6000E-02  3.6000E-02  4.5000E-02  4.5000E-02  4.5000E-02
       4.5000E-02  4.5000E-02  4.5000E-02  4.5000E-02  4.5000E-02  4.5000E-02  4.5000E-02  3.6000E-02  3.6000E-02
  66    0.000       0.000       0.000       0.000       0.000       0.000       0.000       0.000       0.000       0.000    
        0.000       0.000       0.000       0.000       0.000       0.000       0.000       0.000       0.000       0.000    
        0.000       0.000       0.000       0.000       0.000       0.000       0.000       0.000       0.000       0.000    
        0.000       0.000       0.000       0.000       0.000      4.5000E-02  4.5000E-02   0.000       0.000       0.000    
        0.000       0.000       0.000       0.000       0.000       0.000       0.000       0.000       0.000       0.000    
       1.8000E-02  3.6000E-02  4.5000E-02  4.5000E-02  4.5000E-02  3.6000E-02  3.6000E-02  3.6000E-02  3.6000E-02  3.6000E-02
       3.6000E-02  3.6000E-02  3.6000E-02  3.6000E-02  3.6000E-02  3.6000E-02  3.6000E-02  3.6000E-02  4.5000E-02  4.5000E-02
       4.5000E-02  4.5000E-02  4.5000E-02  4.5000E-02  4.5000E-02  4.5000E-02  4.5000E-02  3.6000E-02  3.6000E-02
  67    0.000       0.000       0.000       0.000       0.000       0.000       0.000       0.000       0.000       0.000    
        0.000       0.000       0.000       0.000       0.000       0.000       0.000       0.000       0.000       0.000    
        0.000       0.000       0.000       0.000       0.000       0.000       0.000       0.000       0.000       0.000    
        0.000       0.000       0.000       0.000       0.000       0.000       0.000       0.000       0.000       0.000    
        0.000       0.000       0.000       0.000       0.000       0.000       0.000       0.000       0.000       0.000    
        0.000       0.000      1.8000E-02  4.5000E-02  3.6000E-02  3.6000E-02  3.6000E-02  3.6000E-02  3.6000E-02  1.8000E-02
       1.8000E-02  1.8000E-02  1.8000E-02  1.8000E-02  3.6000E-02  3.6000E-02  3.6000E-02  3.6000E-02  4.5000E-02  4.5000E-02
       4.5000E-02   0.000       0.000       0.000       0.000       0.000       0.000       0.000       0.000    
  68    0.000       0.000       0.000       0.000       0.000       0.000       0.000       0.000       0.000       0.000    
        0.000       0.000       0.000       0.000       0.000       0.000       0.000       0.000       0.000       0.000    
        0.000       0.000       0.000       0.000       0.000       0.000       0.000       0.000       0.000       0.000    
        0.000       0.000       0.000       0.000       0.000       0.000       0.000       0.000       0.000       0.000    
        0.000       0.000       0.000       0.000       0.000       0.000       0.000       0.000       0.000       0.000    
        0.000       0.000       0.000      1.8000E-02  3.6000E-02  3.6000E-02  3.6000E-02  1.8000E-02  1.8000E-02  1.8000E-02
       1.8000E-02  1.8000E-02  1.8000E-02  1.8000E-02  3.6000E-02  3.6000E-02  3.6000E-02  4.5000E-02   0.000       0.000    
        0.000       0.000       0.000       0.000       0.000       0.000       0.000       0.000       0.000    
  69    0.000       0.000       0.000       0.000       0.000       0.000       0.000       0.000       0.000       0.000    
        0.000       0.000       0.000       0.000       0.000       0.000       0.000       0.000       0.000       0.000    
        0.000       0.000       0.000       0.000       0.000       0.000       0.000       0.000       0.000       0.000    
        0.000       0.000       0.000       0.000       0.000       0.000       0.000       0.000       0.000       0.000    
        0.000       0.000       0.000       0.000       0.000       0.000       0.000       0.000       0.000       0.000    
        0.000       0.000       0.000       0.000       0.000       0.000       0.000       0.000       0.000       0.000    
       1.8000E-02  1.8000E-02  1.8000E-02  1.8000E-02  4.5000E-02  4.5000E-02  4.5000E-02   0.000       0.000       0.000    
        0.000       0.000       0.000       0.000       0.000       0.000       0.000       0.000       0.000    
  70    0.000       0.000       0.000       0.000       0.000       0.000       0.000       0.000       0.000       0.000    
        0.000       0.000       0.000       0.000       0.000       0.000       0.000       0.000       0.000       0.000    
        0.000       0.000       0.000       0.000       0.000       0.000       0.000       0.000       0.000       0.000    
        0.000       0.000       0.000       0.000       0.000       0.000       0.000       0.000       0.000       0.000    
        0.000       0.000       0.000       0.000       0.000       0.000       0.000       0.000       0.000       0.000    
        0.000       0.000       0.000       0.000       0.000       0.000       0.000       0.000       0.000       0.000    
        0.000      1.8000E-02  1.8000E-02  1.8000E-02  4.5000E-02  4.5000E-02   0.000       0.000       0.000       0.000    
        0.000       0.000       0.000       0.000       0.000       0.000       0.000       0.000       0.000    
  71    0.000       0.000       0.000       0.000       0.000       0.000       0.000       0.000       0.000       0.000    
        0.000       0.000       0.000       0.000       0.000       0.000       0.000       0.000       0.000       0.000    
        0.000       0.000       0.000       0.000       0.000       0.000       0.000       0.000       0.000       0.000    
        0.000       0.000       0.000       0.000       0.000       0.000       0.000       0.000       0.000       0.000    
        0.000       0.000       0.000       0.000       0.000       0.000       0.000       0.000       0.000       0.000    
        0.000       0.000       0.000       0.000       0.000       0.000       0.000       0.000       0.000       0.000    
        0.000       0.000      1.8000E-02  3.6000E-02   0.000       0.000       0.000       0.000       0.000       0.000    
        0.000       0.000       0.000       0.000       0.000       0.000       0.000       0.000       0.000    



            LAND SURFACE VERTICAL K
 READING ON UNIT   14 WITH FORMAT: (FREE)              

            1           2           3           4           5           6           7           8           9          10
           11          12          13          14          15          16          17          18          19          20
           21          22          23          24          25          26          27          28          29          30
           31          32          33          34          35          36          37          38          39          40
           41          42          43          44          45          46          47          48          49          50
           51          52          53          54          55          56          57          58          59          60
           61          62          63          64          65          66          67          68          69          70
           71          72          73          74          75          76          77          78          79
 ........................................................................................................................
   1    0.000       0.000       0.000       0.000       0.000       0.000       0.000       0.000       0.000       0.000    
        0.000       0.000       0.000       0.000       0.000       0.000       0.000       0.000       0.000       0.000    
        0.000       0.000       0.000       0.000       0.000       0.000       0.000       0.000       0.000       0.000    
        0.000       0.000       0.000       0.000       0.000       0.000       0.000       0.000       0.000       0.000    
        0.000       0.000       0.000       0.000       0.000       0.000       0.000       0.000       0.000       0.000    
        0.000      1.0000E-04  1.0000E-04   0.000       0.000       0.000       0.000       0.000       0.000       0.000    
        0.000       0.000       0.000       0.000       0.000       0.000       0.000       0.000       0.000       0.000    
        0.000       0.000       0.000       0.000       0.000       0.000       0.000       0.000       0.000    
   2    0.000       0.000       0.000       0.000       0.000       0.000       0.000       0.000       0.000       0.000    
        0.000       0.000       0.000       0.000       0.000       0.000       0.000       0.000       0.000       0.000    
        0.000       0.000       0.000       0.000       0.000       0.000       0.000       0.000       0.000       0.000    
        0.000       0.000       0.000       0.000       0.000       0.000       0.000       0.000       0.000       0.000    
        0.000       0.000       0.000       0.000       0.000       0.000       0.000       0.000       0.000       0.000    
        0.000      1.0000E-04  2.5000E-04  2.5000E-04   0.000       0.000       0.000       0.000       0.000       0.000    
        0.000       0.000       0.000       0.000       0.000       0.000       0.000       0.000       0.000       0.000    
        0.000       0.000       0.000       0.000       0.000       0.000       0.000       0.000       0.000    
   3    0.000       0.000       0.000       0.000       0.000       0.000       0.000       0.000       0.000       0.000    
        0.000       0.000       0.000       0.000       0.000       0.000       0.000       0.000       0.000       0.000    
        0.000       0.000       0.000       0.000       0.000       0.000       0.000       0.000       0.000       0.000    
        0.000       0.000       0.000       0.000       0.000       0.000       0.000       0.000       0.000       0.000    
        0.000       0.000       0.000       0.000       0.000       0.000       0.000       0.000       0.000       0.000    
        0.000      1.0000E-04  2.5000E-04  5.0000E-04   0.000       0.000       0.000       0.000       0.000       0.000    
        0.000       0.000       0.000       0.000       0.000       0.000       0.000       0.000       0.000       0.000    
        0.000       0.000       0.000       0.000       0.000       0.000       0.000       0.000       0.000    
   4    0.000       0.000       0.000       0.000       0.000       0.000       0.000       0.000       0.000       0.000    
        0.000       0.000       0.000       0.000       0.000       0.000       0.000       0.000       0.000       0.000    
        0.000       0.000       0.000       0.000       0.000       0.000       0.000       0.000       0.000       0.000    
        0.000       0.000       0.000       0.000       0.000       0.000       0.000       0.000       0.000       0.000    
        0.000       0.000       0.000       0.000       0.000       0.000       0.000       0.000       0.000       0.000    
        0.000      2.5000E-04  2.5000E-04  5.0000E-04  5.0000E-04   0.000       0.000       0.000       0.000       0.000    
        0.000       0.000       0.000       0.000       0.000       0.000       0.000       0.000       0.000       0.000    
        0.000       0.000       0.000       0.000       0.000       0.000       0.000       0.000       0.000    
   5    0.000       0.000       0.000       0.000       0.000       0.000       0.000       0.000       0.000       0.000    
        0.000       0.000       0.000       0.000       0.000       0.000       0.000       0.000       0.000       0.000    
        0.000       0.000       0.000       0.000       0.000       0.000       0.000       0.000       0.000       0.000    
        0.000       0.000       0.000       0.000       0.000       0.000       0.000       0.000       0.000       0.000    
        0.000       0.000       0.000       0.000       0.000       0.000       0.000       0.000       0.000       0.000    
        0.000      2.5000E-04  2.5000E-04  2.5000E-04  5.0000E-04  2.5000E-04  2.5000E-04   0.000       0.000       0.000    
        0.000       0.000       0.000       0.000       0.000       0.000       0.000       0.000       0.000       0.000    
        0.000       0.000       0.000       0.000       0.000       0.000       0.000       0.000       0.000    
   6    0.000       0.000       0.000       0.000       0.000       0.000       0.000       0.000       0.000       0.000    
        0.000       0.000       0.000       0.000       0.000       0.000       0.000       0.000       0.000       0.000    
        0.000       0.000       0.000       0.000       0.000       0.000       0.000       0.000       0.000       0.000    
        0.000       0.000       0.000       0.000       0.000       0.000       0.000       0.000       0.000       0.000    
        0.000       0.000       0.000       0.000       0.000       0.000       0.000       0.000       0.000       0.000    
        0.000      2.5000E-04  2.5000E-04  2.5000E-04  5.0000E-04  5.0000E-04  2.5000E-04  2.5000E-04  2.5000E-04   0.000    
        0.000       0.000       0.000      2.5000E-04  2.5000E-04   0.000       0.000       0.000       0.000       0.000    
        0.000       0.000       0.000       0.000       0.000       0.000       0.000       0.000       0.000    
   7    0.000       0.000       0.000       0.000       0.000       0.000       0.000       0.000       0.000       0.000    
        0.000       0.000       0.000       0.000       0.000       0.000       0.000       0.000       0.000       0.000    
        0.000       0.000       0.000       0.000       0.000       0.000       0.000       0.000       0.000       0.000    
        0.000       0.000       0.000       0.000       0.000       0.000       0.000       0.000       0.000       0.000    
        0.000       0.000       0.000       0.000       0.000       0.000       0.000       0.000       0.000       0.000    
        0.000      2.5000E-04  2.5000E-04  2.5000E-04  5.0000E-04  5.0000E-04  5.0000E-04  2.5000E-04  2.5000E-04  2.5000E-04
       2.5000E-04  2.5000E-04  2.5000E-04  2.5000E-04  2.5000E-04  2.5000E-04   0.000       0.000       0.000       0.000    
        0.000       0.000       0.000       0.000       0.000       0.000       0.000       0.000       0.000    
   8    0.000       0.000       0.000       0.000       0.000       0.000       0.000       0.000       0.000       0.000    
        0.000       0.000       0.000       0.000       0.000       0.000       0.000       0.000       0.000       0.000    
        0.000       0.000       0.000       0.000       0.000       0.000       0.000       0.000       0.000       0.000    
        0.000       0.000       0.000       0.000       0.000       0.000       0.000       0.000       0.000       0.000    
        0.000       0.000       0.000       0.000       0.000       0.000       0.000       0.000       0.000       0.000    
        0.000      2.5000E-04  2.5000E-04  2.5000E-04  5.0000E-04  5.0000E-04  5.0000E-04  2.5000E-04  2.5000E-04  2.5000E-04
       2.5000E-04  2.5000E-04  2.5000E-04  2.5000E-04  2.5000E-04  2.5000E-04  2.5000E-04  2.5000E-04   0.000       0.000    
        0.000       0.000       0.000       0.000       0.000       0.000       0.000       0.000       0.000    
   9    0.000       0.000       0.000       0.000       0.000       0.000       0.000       0.000       0.000       0.000    
        0.000       0.000       0.000       0.000       0.000       0.000       0.000       0.000       0.000       0.000    
        0.000       0.000       0.000       0.000       0.000       0.000       0.000       0.000       0.000       0.000    
        0.000       0.000       0.000       0.000       0.000       0.000       0.000       0.000       0.000       0.000    
        0.000       0.000       0.000       0.000       0.000       0.000       0.000       0.000       0.000       0.000    
       2.0000E-04  2.5000E-04  2.5000E-04  2.5000E-04  5.0000E-04  5.0000E-04  5.0000E-04  2.5000E-04  2.5000E-04  2.5000E-04
       2.5000E-04  2.5000E-04  2.5000E-04  2.5000E-04  2.5000E-04  2.5000E-04  2.5000E-04  2.5000E-04  2.5000E-04   0.000    
        0.000       0.000       0.000       0.000       0.000       0.000       0.000       0.000       0.000    
  10    0.000       0.000       0.000       0.000       0.000       0.000       0.000       0.000       0.000       0.000    
        0.000       0.000       0.000       0.000       0.000       0.000       0.000       0.000       0.000       0.000    
        0.000       0.000       0.000       0.000       0.000       0.000       0.000       0.000       0.000       0.000    
        0.000       0.000       0.000       0.000       0.000       0.000       0.000       0.000       0.000       0.000    
        0.000       0.000       0.000       0.000       0.000       0.000       0.000       0.000       0.000      2.5000E-04
       2.5000E-04  2.5000E-04  2.5000E-04  2.5000E-04  2.5000E-04  5.0000E-04  5.0000E-04  5.0000E-04  2.5000E-04  2.5000E-04
       2.5000E-04  2.5000E-04  2.5000E-04  2.5000E-04  2.5000E-04  2.5000E-04  2.5000E-04  2.5000E-04  2.5000E-04  2.5000E-04
        0.000       0.000       0.000       0.000       0.000       0.000       0.000       0.000       0.000    
  11    0.000       0.000       0.000       0.000       0.000       0.000       0.000       0.000       0.000       0.000    
        0.000       0.000       0.000       0.000       0.000       0.000       0.000       0.000       0.000       0.000    
        0.000       0.000       0.000       0.000       0.000       0.000       0.000       0.000       0.000       0.000    
        0.000       0.000       0.000       0.000       0.000       0.000       0.000       0.000       0.000       0.000    
        0.000       0.000       0.000       0.000       0.000       0.000       0.000       0.000      2.5000E-04  2.5000E-04
       2.5000E-04  2.5000E-04  2.5000E-04  2.5000E-04  2.5000E-04  5.0000E-04  5.0000E-04  5.0000E-04  2.5000E-04  2.5000E-04
       2.5000E-04  2.5000E-04  2.5000E-04  2.5000E-04  2.5000E-04  2.5000E-04  2.5000E-04  2.5000E-04  2.5000E-04  2.5000E-04
       2.5000E-04   0.000       0.000       0.000       0.000       0.000       0.000       0.000       0.000    
  12    0.000       0.000       0.000       0.000       0.000       0.000       0.000       0.000       0.000       0.000    
        0.000       0.000       0.000       0.000       0.000       0.000       0.000       0.000       0.000       0.000    
        0.000       0.000       0.000       0.000       0.000       0.000       0.000       0.000       0.000       0.000    
        0.000       0.000       0.000       0.000       0.000       0.000       0.000       0.000       0.000       0.000    
        0.000      2.0000E-04  2.0000E-04   0.000       0.000       0.000       0.000      2.0000E-04  2.5000E-04  2.5000E-04
       2.5000E-04  2.5000E-04  2.5000E-04  2.5000E-04  2.5000E-04  5.0000E-04  5.0000E-04  5.0000E-04  2.5000E-04  2.5000E-04
       2.5000E-04  2.5000E-04  2.5000E-04  2.5000E-04  2.5000E-04  2.5000E-04  2.5000E-04  2.5000E-04  2.5000E-04  2.5000E-04
       2.5000E-04   0.000       0.000       0.000       0.000       0.000       0.000       0.000       0.000    
  13    0.000       0.000       0.000       0.000       0.000       0.000       0.000       0.000       0.000       0.000    
        0.000       0.000       0.000       0.000       0.000       0.000       0.000       0.000       0.000       0.000    
        0.000       0.000       0.000       0.000       0.000       0.000       0.000       0.000       0.000       0.000    
        0.000       0.000       0.000       0.000       0.000       0.000       0.000       0.000      2.0000E-04  2.0000E-04
       2.0000E-04  2.0000E-04  2.0000E-04  2.0000E-04  2.0000E-04  2.0000E-04  2.0000E-04  2.0000E-04  2.5000E-04  2.5000E-04
       2.5000E-04  2.5000E-04  2.5000E-04  2.5000E-04  2.5000E-04  5.0000E-04  5.0000E-04  5.0000E-04  2.5000E-04  2.5000E-04
       2.5000E-04  2.5000E-04  2.5000E-04  2.5000E-04  2.5000E-04  2.5000E-04  2.5000E-04  2.5000E-04  2.5000E-04  2.5000E-04
       2.5000E-04  2.5000E-04   0.000       0.000       0.000       0.000       0.000       0.000       0.000    
  14    0.000       0.000       0.000       0.000       0.000       0.000       0.000       0.000       0.000       0.000    
        0.000       0.000       0.000       0.000       0.000       0.000       0.000       0.000       0.000       0.000    
        0.000       0.000       0.000       0.000       0.000       0.000       0.000       0.000       0.000       0.000    
        0.000       0.000       0.000       0.000       0.000       0.000       0.000       0.000      2.0000E-04  2.0000E-04
       2.0000E-04  2.0000E-04  2.0000E-04  2.0000E-04  2.5000E-04  2.5000E-04  2.5000E-04  2.5000E-04  2.5000E-04  2.5000E-04
       2.5000E-04  2.5000E-04  2.5000E-04  2.5000E-04  2.5000E-04  5.0000E-04  5.0000E-04  5.0000E-04  5.0000E-04  5.0000E-04
       2.5000E-04  2.5000E-04  2.5000E-04  2.5000E-04  2.5000E-04  2.5000E-04  2.5000E-04  5.0000E-04  2.5000E-04  2.5000E-04
       2.5000E-04  2.5000E-04  2.5000E-04   0.000       0.000       0.000       0.000       0.000       0.000    
  15    0.000       0.000       0.000       0.000       0.000       0.000       0.000       0.000       0.000       0.000    
        0.000       0.000       0.000       0.000       0.000       0.000       0.000       0.000       0.000       0.000    
        0.000       0.000       0.000       0.000       0.000       0.000       0.000       0.000       0.000       0.000    
        0.000       0.000       0.000       0.000       0.000       0.000       0.000      2.0000E-04  2.0000E-04  2.0000E-04
       2.5000E-04  2.5000E-04  2.5000E-04  2.5000E-04  2.5000E-04  2.5000E-04  2.5000E-04  2.5000E-04  2.5000E-04  2.5000E-04
       2.5000E-04  2.5000E-04  2.5000E-04  2.5000E-04  2.5000E-04  2.5000E-04  5.0000E-04  5.0000E-04  5.0000E-04  5.0000E-04
       5.0000E-04  2.5000E-04  2.5000E-04  5.0000E-04  5.0000E-04  5.0000E-04  5.0000E-04  5.0000E-04  5.0000E-04  2.5000E-04
       2.5000E-04  2.5000E-04  1.5000E-04   0.000       0.000       0.000       0.000       0.000       0.000    
  16    0.000       0.000       0.000       0.000       0.000       0.000       0.000       0.000       0.000       0.000    
        0.000       0.000       0.000       0.000       0.000       0.000       0.000       0.000       0.000       0.000    
        0.000       0.000       0.000       0.000       0.000       0.000       0.000       0.000       0.000       0.000    
        0.000       0.000       0.000       0.000       0.000       0.000      2.0000E-04  2.0000E-04  2.0000E-04  2.0000E-04
       2.0000E-04  2.5000E-04  2.5000E-04  2.5000E-04  2.5000E-04  2.5000E-04  2.5000E-04  2.5000E-04  2.5000E-04  2.5000E-04
       2.5000E-04  2.5000E-04  2.5000E-04  2.5000E-04  2.5000E-04  2.5000E-04  5.0000E-04  5.0000E-04  5.0000E-04  5.0000E-04
       5.0000E-04  5.0000E-04  5.0000E-04  5.0000E-04  5.0000E-04  5.0000E-04  5.0000E-04  5.0000E-04  5.0000E-04  2.5000E-04
       2.5000E-04  2.5000E-04  1.5000E-04  1.5000E-04   0.000       0.000       0.000       0.000       0.000    
  17    0.000       0.000       0.000       0.000       0.000       0.000       0.000       0.000       0.000       0.000    
        0.000       0.000       0.000       0.000       0.000       0.000       0.000       0.000       0.000       0.000    
        0.000       0.000       0.000       0.000       0.000       0.000       0.000       0.000       0.000       0.000    
        0.000       0.000       0.000       0.000       0.000      2.0000E-04  2.0000E-04  2.0000E-04  2.0000E-04  2.0000E-04
       2.0000E-04  2.5000E-04  2.5000E-04  2.5000E-04  2.5000E-04  2.5000E-04  2.5000E-04  2.5000E-04  2.5000E-04  2.5000E-04
       2.5000E-04  2.5000E-04  2.5000E-04  2.5000E-04  2.5000E-04  2.5000E-04  5.0000E-04  5.0000E-04  5.0000E-04  5.0000E-04
       5.0000E-04  5.0000E-04  5.0000E-04  5.0000E-04  5.0000E-04  5.0000E-04  5.0000E-04  5.0000E-04  5.0000E-04  2.5000E-04
       2.5000E-04  2.5000E-04  1.5000E-04  1.5000E-04   0.000       0.000       0.000       0.000       0.000    
  18    0.000       0.000       0.000       0.000       0.000       0.000       0.000       0.000       0.000       0.000    
        0.000       0.000       0.000       0.000       0.000       0.000       0.000       0.000       0.000       0.000    
        0.000       0.000       0.000       0.000       0.000       0.000       0.000       0.000       0.000       0.000    
        0.000       0.000       0.000       0.000      2.0000E-04  2.0000E-04  2.0000E-04  2.0000E-04  2.0000E-04  2.0000E-04
       2.0000E-04  2.0000E-04  2.0000E-04  2.5000E-04  2.5000E-04  2.5000E-04  2.5000E-04  2.5000E-04  2.5000E-04  2.5000E-04
       2.5000E-04  2.5000E-04  2.5000E-04  2.5000E-04  2.5000E-04  2.5000E-04  5.0000E-04  5.0000E-04  5.0000E-04  5.0000E-04
       5.0000E-04  5.0000E-04  5.0000E-04  5.0000E-04  5.0000E-04  5.0000E-04  5.0000E-04  5.0000E-04  5.0000E-04  5.0000E-04
       2.5000E-04  2.5000E-04  2.5000E-04  1.5000E-04   0.000       0.000       0.000       0.000       0.000    
  19    0.000       0.000       0.000       0.000       0.000       0.000       0.000       0.000       0.000       0.000    
        0.000       0.000       0.000       0.000       0.000       0.000       0.000       0.000       0.000       0.000    
        0.000       0.000       0.000       0.000       0.000       0.000       0.000       0.000       0.000       0.000    
        0.000       0.000       0.000      2.0000E-04  2.0000E-04  2.0000E-04  2.0000E-04  2.0000E-04  2.0000E-04  2.0000E-04
       2.0000E-04  2.0000E-04  2.0000E-04  2.0000E-04  2.5000E-04  2.5000E-04  2.5000E-04  2.5000E-04  2.5000E-04  2.5000E-04
       2.5000E-04  2.5000E-04  2.5000E-04  2.5000E-04  2.5000E-04  2.5000E-04  2.5000E-04  5.0000E-04  5.0000E-04  5.0000E-04
       5.0000E-04  5.0000E-04  5.0000E-04  5.0000E-04  5.0000E-04  5.0000E-04  5.0000E-04  5.0000E-04  5.0000E-04  5.0000E-04
       2.5000E-04  2.5000E-04  2.5000E-04  1.5000E-04   0.000       0.000       0.000       0.000       0.000    
  20    0.000       0.000       0.000       0.000       0.000       0.000       0.000       0.000       0.000       0.000    
        0.000       0.000       0.000       0.000       0.000       0.000       0.000       0.000       0.000       0.000    
        0.000       0.000       0.000       0.000       0.000       0.000       0.000       0.000       0.000       0.000    
        0.000       0.000       0.000      1.0000E-04  2.0000E-04  2.0000E-04  2.0000E-04  2.0000E-04  2.0000E-04  2.0000E-04
       2.0000E-04  2.0000E-04  2.0000E-04  2.0000E-04  2.5000E-04  2.5000E-04  2.5000E-04  2.5000E-04  2.5000E-04  2.5000E-04
       2.5000E-04  2.5000E-04  2.5000E-04  2.5000E-04  2.5000E-04  2.5000E-04  2.5000E-04  5.0000E-04  5.0000E-04  5.0000E-04
       5.0000E-04  5.0000E-04  5.0000E-04  5.0000E-04  5.0000E-04  5.0000E-04  5.0000E-04  5.0000E-04  5.0000E-04  5.0000E-04
       2.5000E-04  2.5000E-04  2.5000E-04  1.5000E-04   0.000       0.000       0.000       0.000       0.000    
  21    0.000       0.000       0.000       0.000       0.000       0.000       0.000       0.000       0.000       0.000    
        0.000       0.000       0.000       0.000       0.000       0.000       0.000       0.000       0.000       0.000    
        0.000       0.000       0.000       0.000       0.000       0.000       0.000       0.000       0.000       0.000    
        0.000       0.000      1.0000E-04  1.0000E-04  2.0000E-04  1.0000E-04  2.0000E-04  2.0000E-04  2.0000E-04  2.0000E-04
       2.0000E-04  2.0000E-04  2.0000E-04  2.0000E-04  2.0000E-04  2.5000E-04  2.5000E-04  2.5000E-04  2.5000E-04  2.5000E-04
       2.5000E-04  2.5000E-04  2.5000E-04  2.5000E-04  2.5000E-04  2.5000E-04  2.5000E-04  2.5000E-04  5.0000E-04  5.0000E-04
       5.0000E-04  5.0000E-04  5.0000E-04  5.0000E-04  5.0000E-04  5.0000E-04  5.0000E-04  5.0000E-04  5.0000E-04  2.5000E-04
       2.5000E-04  2.5000E-04  2.5000E-04  1.5000E-04  1.5000E-04   0.000       0.000       0.000       0.000    
  22    0.000       0.000       0.000       0.000       0.000       0.000       0.000       0.000       0.000       0.000    
        0.000       0.000       0.000       0.000       0.000       0.000       0.000       0.000       0.000       0.000    
        0.000       0.000       0.000       0.000       0.000       0.000       0.000       0.000       0.000       0.000    
        0.000       0.000      1.0000E-04  1.0000E-04  1.0000E-04  1.0000E-04  2.0000E-04  2.0000E-04  2.0000E-04  2.0000E-04
       2.0000E-04  2.0000E-04  2.0000E-04  2.0000E-04  2.0000E-04  2.5000E-04  2.5000E-04  2.5000E-04  2.5000E-04  2.5000E-04
       2.5000E-04  2.5000E-04  2.5000E-04  2.5000E-04  2.5000E-04  2.5000E-04  2.5000E-04  2.5000E-04  2.5000E-04  2.5000E-04
       2.5000E-04  5.0000E-04  5.0000E-04  5.0000E-04  5.0000E-04  5.0000E-04  5.0000E-04  5.0000E-04  5.0000E-04  2.5000E-04
       2.5000E-04  2.5000E-04  2.5000E-04  2.5000E-04   0.000       0.000       0.000       0.000       0.000    
  23    0.000       0.000       0.000       0.000       0.000       0.000       0.000       0.000       0.000       0.000    
        0.000       0.000       0.000       0.000       0.000       0.000       0.000       0.000       0.000       0.000    
        0.000       0.000       0.000       0.000       0.000       0.000       0.000       0.000       0.000       0.000    
        0.000      1.0000E-04  1.0000E-04  1.0000E-04  1.0000E-04  2.0000E-04  2.0000E-04  2.0000E-04  2.0000E-04  2.0000E-04
       2.0000E-04  2.0000E-04  2.0000E-04  2.0000E-04  2.0000E-04  2.5000E-04  2.5000E-04  5.0000E-04  2.5000E-04  2.5000E-04
       2.5000E-04  2.5000E-04  2.5000E-04  2.5000E-04  2.5000E-04  2.5000E-04  2.5000E-04  2.5000E-04  2.5000E-04  2.5000E-04
       2.5000E-04  2.5000E-04  5.0000E-04  5.0000E-04  5.0000E-04  5.0000E-04  5.0000E-04  5.0000E-04  5.0000E-04  2.5000E-04
       2.5000E-04   0.000       0.000       0.000       0.000       0.000       0.000       0.000       0.000    
  24    0.000       0.000       0.000       0.000       0.000       0.000       0.000       0.000       0.000       0.000    
        0.000       0.000       0.000       0.000       0.000       0.000       0.000       0.000       0.000       0.000    
        0.000       0.000       0.000       0.000       0.000       0.000       0.000       0.000      1.0000E-04  1.0000E-04
       1.0000E-04  1.0000E-04  1.0000E-04  1.0000E-04  1.0000E-04  2.0000E-04  2.0000E-04  2.0000E-04  2.0000E-04  2.0000E-04
       2.0000E-04  2.0000E-04  2.0000E-04  2.0000E-04  2.0000E-04  2.5000E-04  2.5000E-04  5.0000E-04  5.0000E-04  2.5000E-04
       2.5000E-04  2.5000E-04  2.5000E-04  2.5000E-04  2.5000E-04  2.5000E-04  2.5000E-04  2.5000E-04  2.5000E-04  2.5000E-04
       2.5000E-04  2.5000E-04  2.5000E-04  5.0000E-04  5.0000E-04  5.0000E-04  5.0000E-04  5.0000E-04  5.0000E-04  2.5000E-04
       2.5000E-04   0.000       0.000       0.000       0.000       0.000       0.000       0.000       0.000    
  25    0.000       0.000       0.000       0.000       0.000       0.000       0.000       0.000       0.000       0.000    
        0.000       0.000       0.000       0.000       0.000       0.000       0.000       0.000       0.000       0.000    
        0.000       0.000       0.000       0.000       0.000       0.000       0.000      1.0000E-04  1.0000E-04  1.0000E-04
       1.0000E-04  1.0000E-04  1.0000E-04  1.0000E-04  2.0000E-04  2.0000E-04  2.0000E-04  2.0000E-04  2.0000E-04  2.0000E-04
       2.0000E-04  2.0000E-04  2.0000E-04  2.0000E-04  2.5000E-04  2.5000E-04  2.5000E-04  5.0000E-04  5.0000E-04  2.5000E-04
       2.5000E-04  2.5000E-04  2.5000E-04  2.5000E-04  2.5000E-04  2.5000E-04  2.5000E-04  2.5000E-04  2.5000E-04  2.5000E-04
       2.5000E-04  2.5000E-04  2.5000E-04  2.5000E-04  2.5000E-04  5.0000E-04  5.0000E-04  5.0000E-04  5.0000E-04  2.5000E-04
       2.5000E-04   0.000       0.000       0.000       0.000       0.000       0.000       0.000       0.000    
  26    0.000       0.000       0.000       0.000       0.000       0.000       0.000       0.000       0.000       0.000    
        0.000       0.000       0.000       0.000       0.000       0.000       0.000       0.000       0.000       0.000    
        0.000       0.000       0.000       0.000       0.000      1.0000E-04  1.0000E-04  1.0000E-04  1.0000E-04  1.0000E-04
       1.0000E-04  1.0000E-04  1.0000E-04  2.0000E-04  2.0000E-04  2.0000E-04  2.0000E-04  2.0000E-04  2.0000E-04  2.0000E-04
       2.0000E-04  2.0000E-04  2.5000E-04  2.5000E-04  2.5000E-04  2.5000E-04  2.5000E-04  2.5000E-04  5.0000E-04  5.0000E-04
       5.0000E-04  2.5000E-04  2.5000E-04  2.5000E-04  2.5000E-04  2.5000E-04  2.5000E-04  2.5000E-04  2.5000E-04  2.5000E-04
       2.5000E-04  2.5000E-04  2.5000E-04  2.5000E-04  2.5000E-04  5.0000E-04  5.0000E-04  5.0000E-04  5.0000E-04  2.5000E-04
       2.5000E-04   0.000       0.000       0.000       0.000       0.000       0.000       0.000       0.000    
  27    0.000       0.000       0.000       0.000       0.000       0.000       0.000       0.000       0.000       0.000    
        0.000       0.000       0.000       0.000       0.000       0.000       0.000       0.000       0.000       0.000    
        0.000       0.000       0.000       0.000      1.0000E-04  1.0000E-04  1.0000E-04  1.0000E-04  1.0000E-04  1.0000E-04
       1.0000E-04  1.0000E-04  2.0000E-04  2.0000E-04  2.0000E-04  2.0000E-04  2.0000E-04  2.0000E-04  2.0000E-04  2.0000E-04
       2.0000E-04  2.5000E-04  2.5000E-04  2.5000E-04  2.5000E-04  2.5000E-04  2.5000E-04  2.5000E-04  2.5000E-04  5.0000E-04
       5.0000E-04  2.5000E-04  2.5000E-04  2.5000E-04  2.5000E-04  2.5000E-04  2.5000E-04  2.5000E-04  2.5000E-04  2.5000E-04
       2.5000E-04  2.5000E-04  2.5000E-04  2.5000E-04  2.5000E-04  5.0000E-04  5.0000E-04  5.0000E-04  5.0000E-04  5.0000E-04
       2.5000E-04   0.000       0.000       0.000       0.000       0.000       0.000       0.000       0.000    
  28    0.000       0.000       0.000       0.000       0.000       0.000       0.000       0.000       0.000       0.000    
        0.000       0.000       0.000       0.000       0.000       0.000       0.000       0.000       0.000       0.000    
        0.000       0.000       0.000      1.0000E-04  1.0000E-04  1.0000E-04  1.0000E-04  1.0000E-04  1.0000E-04  1.0000E-04
       1.0000E-04  2.0000E-04  2.0000E-04  2.0000E-04  2.0000E-04  2.0000E-04  2.0000E-04  2.0000E-04  2.5000E-04  2.5000E-04
       2.5000E-04  2.5000E-04  2.5000E-04  2.5000E-04  2.5000E-04  2.5000E-04  2.5000E-04  2.5000E-04  2.5000E-04  2.5000E-04
       5.0000E-04  5.0000E-04  2.5000E-04  2.5000E-04  2.5000E-04  2.5000E-04  2.5000E-04  2.5000E-04  2.5000E-04  2.5000E-04
       2.5000E-04  2.5000E-04  2.5000E-04  2.5000E-04  2.5000E-04  2.5000E-04  5.0000E-04  5.0000E-04  1.5000E-03  5.0000E-04
       2.5000E-04  2.5000E-04   0.000       0.000       0.000       0.000       0.000       0.000       0.000    
  29    0.000       0.000       0.000       0.000       0.000       0.000       0.000       0.000       0.000       0.000    
        0.000       0.000       0.000       0.000       0.000       0.000       0.000       0.000       0.000       0.000    
        0.000      1.0000E-04  1.0000E-04  1.0000E-04  1.0000E-04  1.0000E-04  1.0000E-04  1.0000E-04  1.0000E-04  2.0000E-04
       2.0000E-04  2.0000E-04  2.0000E-04  2.0000E-04  2.0000E-04  2.0000E-04  2.0000E-04  2.5000E-04  2.5000E-04  2.5000E-04
       2.5000E-04  2.5000E-04  2.5000E-04  2.5000E-04  2.5000E-04  2.5000E-04  2.5000E-04  2.5000E-04  2.5000E-04  2.5000E-04
       5.0000E-04  5.0000E-04  2.5000E-04  2.5000E-04  2.5000E-04  2.5000E-04  2.5000E-04  2.5000E-04  2.5000E-04  2.5000E-04
       2.5000E-04  2.5000E-04  2.5000E-04  2.5000E-04  2.5000E-04  2.5000E-04  5.0000E-04  5.0000E-04  1.5000E-03  5.0000E-04
       2.5000E-04  2.5000E-04   0.000       0.000       0.000       0.000       0.000       0.000       0.000    
  30    0.000       0.000       0.000       0.000       0.000       0.000       0.000       0.000       0.000       0.000    
        0.000       0.000       0.000       0.000       0.000       0.000       0.000       0.000       0.000      1.0000E-04
       1.0000E-04  1.0000E-04  1.0000E-04  1.0000E-04  1.0000E-04  1.0000E-04  1.0000E-04  2.0000E-04  2.0000E-04  2.0000E-04
       2.0000E-04  2.0000E-04  2.0000E-04  2.0000E-04  2.0000E-04  2.0000E-04  2.0000E-04  2.5000E-04  2.5000E-04  2.5000E-04
       2.5000E-04  2.5000E-04  2.5000E-04  2.5000E-04  2.5000E-04  2.5000E-04  2.5000E-04  2.5000E-04  2.5000E-04  2.5000E-04
       5.0000E-04  5.0000E-04  2.5000E-04  2.5000E-04  2.5000E-04  2.5000E-04  2.5000E-04  2.5000E-04  2.5000E-04  2.5000E-04
       2.5000E-04  2.5000E-04  2.5000E-04  2.5000E-04  2.5000E-04  2.5000E-04  5.0000E-04  5.0000E-04  1.5000E-03  5.0000E-04
       2.5000E-04  2.5000E-04   0.000       0.000       0.000       0.000       0.000       0.000       0.000    
  31    0.000       0.000       0.000       0.000       0.000       0.000       0.000       0.000       0.000       0.000    
        0.000       0.000       0.000       0.000       0.000       0.000       0.000       0.000      1.0000E-04  1.0000E-04
       1.0000E-04  1.0000E-04  1.0000E-04  2.0000E-04  2.0000E-04  2.0000E-04  2.0000E-04  2.0000E-04  2.0000E-04  2.0000E-04
       2.0000E-04  2.0000E-04  2.0000E-04  2.0000E-04  2.0000E-04  2.0000E-04  2.5000E-04  2.5000E-04  2.5000E-04  2.5000E-04
       2.5000E-04  2.5000E-04  2.5000E-04  5.0000E-04  2.5000E-04  2.5000E-04  2.5000E-04  2.5000E-04  2.5000E-04  2.5000E-04
       5.0000E-04  5.0000E-04  2.5000E-04  2.5000E-04  2.5000E-04  2.5000E-04  2.5000E-04  2.5000E-04  2.5000E-04  2.5000E-04
       2.5000E-04  2.5000E-04  2.5000E-04  2.5000E-04  2.5000E-04  2.5000E-04  5.0000E-04  5.0000E-04  1.5000E-03  1.5000E-03
       2.5000E-04  2.5000E-04   0.000       0.000       0.000       0.000       0.000       0.000       0.000    
  32    0.000       0.000       0.000       0.000       0.000       0.000       0.000       0.000       0.000       0.000    
        0.000       0.000       0.000       0.000       0.000       0.000      1.0000E-04  1.0000E-04  1.0000E-04  1.0000E-04
       1.0000E-04  1.0000E-04  2.0000E-04  2.0000E-04  2.0000E-04  2.0000E-04  2.0000E-04  2.0000E-04  2.0000E-04  2.0000E-04
       2.0000E-04  2.0000E-04  2.0000E-04  2.0000E-04  2.0000E-04  2.0000E-04  2.5000E-04  2.5000E-04  1.5000E-03  1.5000E-03
       1.5000E-03  1.5000E-03  1.5000E-03  1.5000E-03  2.5000E-04  2.5000E-04  2.5000E-04  2.5000E-04  2.5000E-04  2.5000E-04
       5.0000E-04  5.0000E-04  5.0000E-04  2.5000E-04  2.5000E-04  2.5000E-04  2.5000E-04  2.5000E-04  2.5000E-04  2.5000E-04
       2.5000E-04  2.5000E-04  2.5000E-04  2.5000E-04  2.5000E-04  2.5000E-04  2.5000E-04  5.0000E-04  5.0000E-04  1.5000E-03
       5.0000E-04  2.5000E-04   0.000       0.000       0.000       0.000       0.000       0.000       0.000    
  33    0.000       0.000       0.000       0.000       0.000       0.000       0.000       0.000       0.000       0.000    
        0.000       0.000       0.000       0.000       0.000      1.0000E-04  1.0000E-04  1.0000E-04  1.0000E-04  1.0000E-04
       1.0000E-04  1.0000E-04  2.0000E-04  2.0000E-04  2.0000E-04  2.0000E-04  2.0000E-04  2.0000E-04  2.0000E-04  2.0000E-04
       2.0000E-04  2.0000E-04  2.0000E-04  2.0000E-04  2.5000E-04  2.5000E-04  2.5000E-04  1.5000E-03  1.5000E-03  1.5000E-03
       1.5000E-03  1.5000E-03  1.5000E-03  1.5000E-03  1.5000E-03  2.5000E-04  2.5000E-04  2.5000E-04  2.5000E-04  2.5000E-04
       5.0000E-04  5.0000E-04  5.0000E-04  5.0000E-04  5.0000E-04  5.0000E-04  2.5000E-04  2.5000E-04  2.5000E-04  2.5000E-04
       2.5000E-04  2.5000E-04  2.5000E-04  2.5000E-04  2.5000E-04  2.5000E-04  2.5000E-04  5.0000E-04  5.0000E-04  1.5000E-03
       5.0000E-04  2.5000E-04  2.5000E-04   0.000       0.000       0.000       0.000       0.000       0.000    
  34    0.000       0.000       0.000       0.000       0.000       0.000       0.000       0.000       0.000       0.000    
        0.000       0.000       0.000       0.000      1.0000E-04  1.0000E-04  1.0000E-04  1.0000E-04  1.0000E-04  1.0000E-04
       1.0000E-04  1.0000E-04  2.0000E-04  2.0000E-04  2.0000E-04  2.0000E-04  2.0000E-04  5.0000E-04  2.0000E-04  2.0000E-04
       2.0000E-04  2.0000E-04  2.0000E-04  2.0000E-04  2.5000E-04  2.5000E-04  1.5000E-03  1.5000E-03  1.5000E-03  1.5000E-03
       1.5000E-03  5.0000E-04  5.0000E-04  1.5000E-03  1.5000E-03  1.5000E-03  1.5000E-03  1.5000E-03  1.5000E-03  5.0000E-04
       5.0000E-04  5.0000E-04  1.5000E-03  1.5000E-03  1.5000E-03  5.0000E-04  2.5000E-04  2.5000E-04  2.5000E-04  2.5000E-04
       2.5000E-04  2.5000E-04  2.5000E-04  2.5000E-04  2.5000E-04  2.5000E-04  2.5000E-04  5.0000E-04  5.0000E-04  5.0000E-04
       2.5000E-04  2.0000E-04  2.0000E-04   0.000       0.000       0.000       0.000       0.000       0.000    
  35    0.000       0.000       0.000       0.000       0.000       0.000       0.000       0.000       0.000       0.000    
        0.000       0.000       0.000      1.0000E-04  1.0000E-04  1.0000E-04  1.0000E-04  1.0000E-04  2.0000E-04  2.0000E-04
       2.0000E-04  2.0000E-04  2.0000E-04  2.0000E-04  5.0000E-04  5.0000E-04  5.0000E-04  5.0000E-04  5.0000E-04  5.0000E-04
       2.0000E-04  2.0000E-04  5.0000E-04  5.0000E-04  1.5000E-03  1.5000E-03  1.5000E-03  1.5000E-03  5.0000E-04  5.0000E-04
       5.0000E-04  5.0000E-04  5.0000E-04  5.0000E-04  1.5000E-03  1.5000E-03  1.5000E-03  1.5000E-03  1.5000E-03  1.5000E-03
       1.5000E-03  1.5000E-03  1.5000E-03  1.5000E-03  1.5000E-03  1.5000E-03  2.5000E-04  2.5000E-04  2.5000E-04  2.5000E-04
       2.5000E-04  2.5000E-04  2.5000E-04  2.5000E-04  2.5000E-04  2.5000E-04  2.5000E-04  5.0000E-04  5.0000E-04  2.5000E-04
       2.5000E-04  2.0000E-04  1.0000E-04  1.0000E-04   0.000       0.000       0.000       0.000       0.000    
  36    0.000       0.000       0.000       0.000       0.000       0.000       0.000       0.000       0.000       0.000    
        0.000       0.000       0.000      1.0000E-04  1.0000E-04  1.0000E-04  1.0000E-04  2.0000E-04  2.0000E-04  2.0000E-04
       2.0000E-04  2.0000E-04  2.0000E-04  2.0000E-04  5.0000E-04  5.0000E-04  5.0000E-04  5.0000E-04  1.5000E-03  1.5000E-03
       1.5000E-03  1.5000E-03  1.5000E-03  1.5000E-03  1.5000E-03  1.5000E-03  1.5000E-03  1.5000E-03  5.0000E-04  5.0000E-04
       5.0000E-04  5.0000E-04  5.0000E-04  5.0000E-04  1.5000E-03  1.5000E-03  1.5000E-03  1.5000E-03  1.5000E-03  1.5000E-03
       1.5000E-03  1.5000E-03  1.5000E-03  1.5000E-03  1.5000E-03  1.5000E-03  1.5000E-03  5.0000E-04  5.0000E-04  2.5000E-04
       2.5000E-04  2.5000E-04  5.0000E-04  5.0000E-04  2.5000E-04  2.5000E-04  2.5000E-04  5.0000E-04  5.0000E-04  2.5000E-04
       2.5000E-04  2.5000E-04  1.0000E-04  1.0000E-04  1.0000E-04   0.000       0.000       0.000       0.000    
  37    0.000       0.000       0.000       0.000       0.000       0.000       0.000       0.000       0.000       0.000    
        0.000       0.000      1.0000E-04  1.0000E-04  1.0000E-04  1.0000E-04  2.0000E-04  2.0000E-04  2.0000E-04  2.0000E-04
       2.0000E-04  2.0000E-04  2.0000E-04  5.0000E-04  1.5000E-03  1.5000E-03  1.5000E-03  1.5000E-03  1.5000E-03  1.5000E-03
       1.5000E-03  1.5000E-03  1.5000E-03  1.5000E-03  1.5000E-03  1.5000E-03  1.5000E-03  1.5000E-03  2.5000E-04  2.5000E-04
       2.5000E-04  2.5000E-04  5.0000E-04  1.5000E-03  1.5000E-03  1.5000E-03  1.5000E-03  1.5000E-03  1.5000E-03  1.5000E-03
       1.5000E-03  1.5000E-03  1.5000E-03  1.5000E-03  1.5000E-03  1.5000E-03  1.5000E-03  1.5000E-03  1.5000E-03  1.5000E-03
       1.5000E-03  1.5000E-03  5.0000E-04  5.0000E-04  5.0000E-04  5.0000E-04  5.0000E-04  5.0000E-04  5.0000E-04  5.0000E-04
       2.5000E-04  2.5000E-04  2.0000E-04  1.0000E-04  1.0000E-04   0.000       0.000       0.000       0.000    
  38    0.000       0.000       0.000       0.000       0.000       0.000       0.000       0.000       0.000       0.000    
       2.0000E-04  2.0000E-04  1.0000E-04  2.0000E-04  2.0000E-04  2.0000E-04  2.0000E-04  2.0000E-04  5.0000E-04  5.0000E-04
       5.0000E-04  5.0000E-04  5.0000E-04  5.0000E-04  5.0000E-04  1.5000E-03  1.5000E-03  1.5000E-03  5.0000E-04  5.0000E-04
       1.5000E-03  1.5000E-03  1.5000E-03  1.5000E-03  1.5000E-03  1.5000E-03  1.5000E-03  1.5000E-03  2.5000E-04  2.5000E-04
       2.5000E-04  2.5000E-04  5.0000E-04  1.5000E-03  1.5000E-03  1.5000E-03  2.5000E-04  5.0000E-04  5.0000E-04  5.0000E-04
       5.0000E-04  5.0000E-04  1.5000E-03  1.5000E-03  1.5000E-03  1.5000E-03  1.5000E-03  1.5000E-03  1.5000E-03  1.5000E-03
       1.5000E-03  1.5000E-03  1.5000E-03  1.5000E-03  1.5000E-03  1.5000E-03  1.5000E-03  1.5000E-03  1.5000E-03  5.0000E-04
       5.0000E-04  2.5000E-04  2.0000E-04  1.0000E-04  1.0000E-04  2.0000E-04   0.000       0.000       0.000    
  39    0.000       0.000       0.000       0.000       0.000       0.000       0.000      1.0000E-04  1.0000E-04  2.0000E-04
       2.0000E-04  2.0000E-04  2.0000E-04  2.0000E-04  5.0000E-04  5.0000E-04  5.0000E-04  5.0000E-04  5.0000E-04  5.0000E-04
       5.0000E-04  5.0000E-04  5.0000E-04  2.5000E-04  2.5000E-04  2.5000E-04  2.5000E-04  2.5000E-04  5.0000E-04  1.5000E-03
       1.5000E-03  1.5000E-03  1.5000E-03  1.5000E-03  1.5000E-03  1.5000E-03  1.5000E-03  1.5000E-03  2.5000E-04  2.5000E-04
       2.5000E-04  2.5000E-04  2.5000E-04  1.5000E-03  1.5000E-03  2.5000E-04  2.5000E-04  2.5000E-04  5.0000E-04  5.0000E-04
       5.0000E-04  5.0000E-04  5.0000E-04  5.0000E-04  5.0000E-04  5.0000E-04  5.0000E-04  5.0000E-04  5.0000E-04  1.5000E-03
       1.5000E-03  1.5000E-03  1.5000E-03  1.5000E-03  1.5000E-03  1.5000E-03  1.5000E-03  1.5000E-03  1.5000E-03  1.5000E-03
       1.5000E-03  1.5000E-03  5.0000E-04  2.0000E-04  2.0000E-04  4.5000E-03   0.000       0.000       0.000    
  40    0.000       0.000       0.000       0.000       0.000       0.000      1.0000E-04  1.0000E-04  1.0000E-04  2.0000E-04
       2.0000E-04  2.0000E-04  5.0000E-04  5.0000E-04  5.0000E-04  5.0000E-04  5.0000E-04  5.0000E-04  2.0000E-04  2.0000E-04
       2.0000E-04  2.0000E-04  2.5000E-04  2.5000E-04  2.5000E-04  2.5000E-04  2.5000E-04  2.5000E-04  1.5000E-03  1.5000E-03
       1.5000E-03  1.5000E-03  1.5000E-03  1.5000E-03  1.5000E-03  1.5000E-03  1.5000E-03  1.5000E-03  2.5000E-04  2.5000E-04
       2.5000E-04  2.5000E-04  2.5000E-04  1.5000E-03  1.5000E-03  2.5000E-04  2.5000E-04  2.5000E-04  2.5000E-04  5.0000E-04
       5.0000E-04  5.0000E-04  5.0000E-04  5.0000E-04  5.0000E-04  5.0000E-04  2.5000E-04  2.5000E-04  5.0000E-04  1.5000E-03
       1.5000E-03  5.0000E-04  5.0000E-04  5.0000E-04  5.0000E-04  1.5000E-03  1.5000E-03  1.5000E-03  1.5000E-03  1.5000E-03
       1.5000E-03  1.5000E-03  1.5000E-03  1.5000E-03  1.5000E-03  4.5000E-03   0.000       0.000       0.000    
  41    0.000       0.000       0.000       0.000       0.000      1.0000E-04  1.0000E-04  1.0000E-04  2.0000E-04  2.0000E-04
       2.0000E-04  2.0000E-04  5.0000E-04  5.0000E-04  2.0000E-04  2.0000E-04  2.0000E-04  2.0000E-04  2.0000E-04  2.0000E-04
       2.0000E-04  2.5000E-04  2.5000E-04  2.5000E-04  2.5000E-04  2.5000E-04  2.5000E-04  2.5000E-04  1.5000E-03  1.5000E-03
       5.0000E-04  5.0000E-04  5.0000E-04  1.5000E-03  1.5000E-03  1.5000E-03  1.5000E-03  1.5000E-03  2.5000E-04  2.5000E-04
       2.5000E-04  2.5000E-04  2.5000E-04  1.5000E-03  1.5000E-03  1.5000E-03  2.5000E-04  2.5000E-04  2.5000E-04  5.0000E-04
       5.0000E-04  5.0000E-04  2.0000E-04  2.0000E-04  2.0000E-04  2.0000E-04  2.5000E-04  2.5000E-04  2.5000E-04  1.5000E-03
       1.5000E-03  5.0000E-04  2.5000E-04  5.0000E-04  5.0000E-04  5.0000E-04  2.5000E-04  2.5000E-04  1.5000E-03  1.5000E-03
       1.5000E-03  1.5000E-03  1.5000E-03  1.5000E-03  1.5000E-03   0.000       0.000       0.000       0.000    
  42    0.000       0.000       0.000       0.000       0.000      1.0000E-04  1.0000E-04  1.0000E-04  2.0000E-04  2.0000E-04
       2.0000E-04  2.0000E-04  2.0000E-04  2.0000E-04  2.0000E-04  2.0000E-04  2.0000E-04  2.0000E-04  2.0000E-04  2.5000E-04
       2.5000E-04  2.5000E-04  2.5000E-04  1.5000E-03  1.5000E-03  1.5000E-03  1.5000E-03  1.5000E-03  1.5000E-03  5.0000E-04
       5.0000E-04  5.0000E-04  5.0000E-04  5.0000E-04  1.5000E-03  1.5000E-03  1.5000E-03  1.5000E-03  2.5000E-04  2.5000E-04
       2.5000E-04  2.5000E-04  2.5000E-04  5.0000E-04  1.5000E-03  1.5000E-03  2.5000E-04  2.5000E-04  2.5000E-04  2.5000E-04
       2.0000E-04  2.0000E-04  2.0000E-04  2.0000E-04  2.0000E-04  2.0000E-04  2.0000E-04  2.5000E-04  2.5000E-04  1.5000E-03
       1.5000E-03  5.0000E-04  2.5000E-04  2.5000E-04  2.5000E-04  2.5000E-04  2.5000E-04  2.5000E-04  2.5000E-04  5.0000E-04
       1.5000E-03  1.5000E-03  1.5000E-03  1.5000E-03  1.5000E-03   0.000       0.000       0.000       0.000    
  43    0.000       0.000       0.000       0.000       0.000      1.0000E-04  1.0000E-04  1.0000E-04  2.0000E-04  2.0000E-04
       2.0000E-04  2.0000E-04  2.0000E-04  2.0000E-04  2.0000E-04  2.0000E-04  2.0000E-04  2.0000E-04  2.0000E-04  2.5000E-04
       2.5000E-04  2.5000E-04  1.5000E-03  1.5000E-03  1.5000E-03  5.0000E-04  5.0000E-04  5.0000E-04  5.0000E-04  5.0000E-04
       5.0000E-04  5.0000E-04  5.0000E-04  5.0000E-04  1.5000E-03  1.5000E-03  1.5000E-03  2.5000E-04  2.5000E-04  2.5000E-04
       2.5000E-04  2.5000E-04  2.5000E-04  5.0000E-04  1.5000E-03  1.5000E-03  2.5000E-04  2.5000E-04  2.5000E-04  2.5000E-04
       2.0000E-04  2.0000E-04  2.0000E-04  2.0000E-04  2.0000E-04  2.0000E-04  2.0000E-04  2.5000E-04  2.5000E-04  1.5000E-03
       1.5000E-03  2.5000E-04  2.5000E-04  2.5000E-04  2.5000E-04  2.5000E-04  2.5000E-04  2.5000E-04  2.5000E-04  5.0000E-04
       1.5000E-03  1.5000E-03  1.5000E-03  1.5000E-03  5.0000E-04   0.000       0.000       0.000       0.000    
  44    0.000       0.000       0.000       0.000       0.000      1.0000E-04  1.0000E-04  1.0000E-04  1.0000E-04  2.0000E-04
       2.0000E-04  2.0000E-04  2.0000E-04  2.0000E-04  2.0000E-04  2.5000E-04  2.5000E-04  2.5000E-04  2.5000E-04  5.0000E-04
       5.0000E-04  1.5000E-03  1.5000E-03  5.0000E-04  5.0000E-04  5.0000E-04  5.0000E-04  5.0000E-04  5.0000E-04  5.0000E-04
       5.0000E-04  5.0000E-04  5.0000E-04  5.0000E-04  1.5000E-03  1.5000E-03  1.5000E-03  2.5000E-04  2.5000E-04  2.5000E-04
       2.5000E-04  2.5000E-04  2.0000E-04  2.0000E-04  1.5000E-03  1.5000E-03  2.5000E-04  2.5000E-04  2.5000E-04  2.5000E-04
       2.5000E-04  2.0000E-04  1.0000E-04  1.0000E-04  1.0000E-04  2.0000E-04  2.0000E-04  2.5000E-04  2.5000E-04  5.0000E-04
       1.5000E-03  2.5000E-04  2.5000E-04  2.5000E-04  2.5000E-04  2.5000E-04  2.5000E-04  2.5000E-04  2.5000E-04  5.0000E-04
       5.0000E-04  1.5000E-03  1.5000E-03  5.0000E-04  5.0000E-04   0.000       0.000       0.000       0.000    
  45    0.000       0.000       0.000      1.0000E-04  1.0000E-04  1.0000E-04  1.0000E-04  1.0000E-04  2.0000E-04  2.0000E-04
       2.0000E-04  2.0000E-04  2.0000E-04  2.0000E-04  5.0000E-04  5.0000E-04  5.0000E-04  5.0000E-04  5.0000E-04  1.5000E-03
       1.5000E-03  1.5000E-03  5.0000E-04  5.0000E-04  5.0000E-04  5.0000E-04  5.0000E-04  5.0000E-04  5.0000E-04  5.0000E-04
       5.0000E-04  5.0000E-04  5.0000E-04  5.0000E-04  1.5000E-03  1.5000E-03  1.5000E-03  5.0000E-04  2.0000E-04  2.0000E-04
       2.0000E-04  2.0000E-04  2.0000E-04  2.0000E-04  1.5000E-03  1.5000E-03  2.5000E-04  2.5000E-04  1.0000E-04  1.0000E-04
       1.0000E-04  1.0000E-04  1.0000E-04  1.0000E-04  1.0000E-04  2.0000E-04  2.0000E-04  2.5000E-04  2.5000E-04  5.0000E-04
       1.5000E-03  2.5000E-04  2.5000E-04  2.5000E-04  2.5000E-04  2.5000E-04  2.5000E-04  2.5000E-04  2.5000E-04  5.0000E-04
       5.0000E-04  1.5000E-03  1.5000E-03  2.5000E-04  2.0000E-04   0.000       0.000       0.000       0.000    
  46    0.000       0.000       0.000      1.0000E-04  1.0000E-04  1.0000E-04  1.0000E-04  1.0000E-04  2.0000E-04  2.0000E-04
       2.0000E-04  5.0000E-04  5.0000E-04  5.0000E-04  5.0000E-04  5.0000E-04  1.5000E-03  1.5000E-03  1.5000E-03  1.5000E-03
       1.5000E-03  5.0000E-04  5.0000E-04  5.0000E-04  5.0000E-04  5.0000E-04  5.0000E-04  5.0000E-04  5.0000E-04  5.0000E-04
       5.0000E-04  5.0000E-04  5.0000E-04  5.0000E-04  1.5000E-03  1.5000E-03  1.5000E-03  2.5000E-04  2.0000E-04  2.0000E-04
       2.0000E-04  2.0000E-04  2.0000E-04  2.0000E-04  1.5000E-03  1.5000E-03  2.5000E-04  2.5000E-04  1.0000E-04  1.0000E-04
       1.0000E-04  1.0000E-04  1.0000E-04  1.0000E-04  1.0000E-04  2.0000E-04  2.0000E-04  2.5000E-04  2.5000E-04  5.0000E-04
       5.0000E-04  2.5000E-04  2.5000E-04  2.5000E-04  2.5000E-04  2.5000E-04  2.5000E-04  2.5000E-04  2.5000E-04  5.0000E-04
       5.0000E-04  1.5000E-03  5.0000E-04  2.5000E-04  2.5000E-04   0.000       0.000       0.000       0.000    
  47    0.000       0.000       0.000      1.0000E-04  1.0000E-04  1.0000E-04  1.0000E-04  2.0000E-04  2.0000E-04  2.0000E-04
       2.0000E-04  5.0000E-04  5.0000E-04  5.0000E-04  1.5000E-03  1.5000E-03  1.5000E-03  5.0000E-04  5.0000E-04  5.0000E-04
       5.0000E-04  5.0000E-04  5.0000E-04  5.0000E-04  5.0000E-04  5.0000E-04  5.0000E-04  5.0000E-04  5.0000E-04  2.5000E-04
       5.0000E-04  5.0000E-04  5.0000E-04  5.0000E-04  1.5000E-03  1.5000E-03  1.5000E-03  2.5000E-04  2.0000E-04  2.0000E-04
       2.0000E-04  2.0000E-04  2.0000E-04  2.0000E-04  1.5000E-03  1.5000E-03  2.5000E-04  2.5000E-04  1.0000E-04  1.0000E-04
       1.0000E-04  1.0000E-04  1.0000E-04  1.0000E-04  1.0000E-04  2.0000E-04  2.0000E-04  2.0000E-04  2.5000E-04  2.5000E-04
       5.0000E-04  2.5000E-04  2.5000E-04  2.5000E-04  2.5000E-04  2.5000E-04  2.5000E-04  2.5000E-04  2.5000E-04  5.0000E-04
       5.0000E-04  1.5000E-03  5.0000E-04  2.5000E-04  2.5000E-04   0.000       0.000       0.000       0.000    
  48    0.000       0.000       0.000      1.0000E-04  1.0000E-04  1.0000E-04  1.0000E-04  2.0000E-04  2.0000E-04  2.0000E-04
       2.0000E-04  5.0000E-04  1.5000E-03  1.5000E-03  1.5000E-03  5.0000E-04  5.0000E-04  5.0000E-04  5.0000E-04  5.0000E-04
       5.0000E-04  5.0000E-04  5.0000E-04  5.0000E-04  2.5000E-04  2.5000E-04  2.5000E-04  2.5000E-04  2.5000E-04  2.5000E-04
       5.0000E-04  5.0000E-04  5.0000E-04  5.0000E-04  1.5000E-03  1.5000E-03  1.5000E-03  1.5000E-03  2.0000E-04  2.0000E-04
       2.0000E-04  2.0000E-04  2.0000E-04  2.0000E-04  1.5000E-03  1.5000E-03  2.5000E-04  2.5000E-04  2.5000E-04  1.0000E-04
       1.0000E-04  1.0000E-04  1.0000E-04  1.0000E-04  1.0000E-04  1.0000E-04  2.0000E-04  2.0000E-04  2.5000E-04  2.5000E-04
       5.0000E-04  5.0000E-04  2.5000E-04  2.5000E-04  2.5000E-04  2.5000E-04  2.5000E-04  2.5000E-04  2.5000E-04  5.0000E-04
       1.5000E-03  1.5000E-03  5.0000E-04  2.5000E-04  2.5000E-04  2.5000E-04   0.000       0.000       0.000    
  49    0.000       0.000       0.000      1.0000E-04  1.0000E-04  1.0000E-04  1.0000E-04  2.0000E-04  2.0000E-04  2.0000E-04
       5.0000E-04  1.5000E-03  1.5000E-03  5.0000E-04  5.0000E-04  5.0000E-04  5.0000E-04  5.0000E-04  5.0000E-04  2.5000E-04
       2.5000E-04  2.5000E-04  2.5000E-04  2.5000E-04  2.5000E-04  2.5000E-04  2.5000E-04  2.5000E-04  2.5000E-04  2.5000E-04
       5.0000E-04  5.0000E-04  5.0000E-04  5.0000E-04  1.5000E-03  1.5000E-03  1.5000E-03  1.5000E-03  1.5000E-03  2.0000E-04
       2.0000E-04  2.0000E-04  2.0000E-04  2.0000E-04  2.0000E-04  1.5000E-03  1.5000E-03  5.0000E-04  2.5000E-04  1.0000E-04
       1.0000E-04  1.0000E-04  1.0000E-04  1.0000E-04  1.0000E-04  1.0000E-04  2.0000E-04  2.0000E-04  2.5000E-04  2.5000E-04
       5.0000E-04  5.0000E-04  2.5000E-04  2.5000E-04  2.5000E-04  2.5000E-04  2.5000E-04  2.5000E-04  2.5000E-04  5.0000E-04
       1.5000E-03  1.5000E-03  5.0000E-04  2.5000E-04  2.5000E-04  2.5000E-04   0.000       0.000       0.000    
  50    0.000       0.000       0.000      1.0000E-04  1.0000E-04  1.0000E-04  2.0000E-04  2.0000E-04  2.0000E-04  2.0000E-04
       1.5000E-03  1.5000E-03  1.5000E-03  1.5000E-03  5.0000E-04  2.5000E-04  2.5000E-04  2.5000E-04  2.5000E-04  2.5000E-04
       2.5000E-04  2.5000E-04  2.5000E-04  2.5000E-04  2.5000E-04  2.5000E-04  2.5000E-04  2.5000E-04  2.5000E-04  2.5000E-04
       2.5000E-04  5.0000E-04  5.0000E-04  5.0000E-04  5.0000E-04  1.5000E-03  1.5000E-03  1.5000E-03  1.5000E-03  1.5000E-03
       2.0000E-04  2.0000E-04  2.0000E-04  2.0000E-04  2.0000E-04  2.0000E-04  1.5000E-03  1.5000E-03  5.0000E-04  1.0000E-04
       1.0000E-04  1.0000E-04  1.0000E-04  1.0000E-04  1.0000E-04  1.0000E-04  2.0000E-04  2.0000E-04  2.5000E-04  2.5000E-04
       5.0000E-04  5.0000E-04  2.5000E-04  2.5000E-04  2.5000E-04  2.5000E-04  2.5000E-04  2.5000E-04  2.5000E-04  5.0000E-04
       1.5000E-03  1.5000E-03  5.0000E-04  5.0000E-04  2.5000E-04  2.5000E-04   0.000       0.000       0.000    
  51    0.000       0.000       0.000      1.0000E-04  1.0000E-04  2.0000E-04  2.0000E-04  2.0000E-04  2.0000E-04  1.5000E-03
       1.5000E-03  1.5000E-03  1.5000E-03  5.0000E-04  5.0000E-04  2.0000E-04  2.0000E-04  2.5000E-04  2.5000E-04  2.5000E-04
       2.5000E-04  2.5000E-04  2.5000E-04  2.5000E-04  2.5000E-04  2.5000E-04  2.5000E-04  2.5000E-04  2.5000E-04  2.5000E-04
       2.5000E-04  5.0000E-04  5.0000E-04  5.0000E-04  5.0000E-04  1.5000E-03  1.5000E-03  1.5000E-03  1.5000E-03  1.5000E-03
       2.0000E-04  2.0000E-04  2.0000E-04  2.0000E-04  2.0000E-04  2.0000E-04  1.5000E-03  1.5000E-03  1.5000E-03  1.0000E-04
       1.0000E-04  1.0000E-04  1.0000E-04  1.0000E-04  1.0000E-04  1.0000E-04  2.0000E-04  2.0000E-04  2.5000E-04  2.5000E-04
       5.0000E-04  5.0000E-04  5.0000E-04  2.5000E-04  2.5000E-04  2.5000E-04  2.5000E-04  2.5000E-04  2.5000E-04  5.0000E-04
       1.5000E-03  1.5000E-03  5.0000E-04  5.0000E-04  2.5000E-04  2.5000E-04   0.000       0.000       0.000    
  52    0.000       0.000      1.0000E-04  1.0000E-04  1.0000E-04  2.0000E-04  2.0000E-04  2.0000E-04  2.0000E-04  1.5000E-03
       1.5000E-03  1.5000E-03  5.0000E-04  2.0000E-04  2.0000E-04  2.0000E-04  2.0000E-04  2.0000E-04  2.0000E-04  2.5000E-04
       2.5000E-04  2.5000E-04  2.5000E-04  2.5000E-04  2.5000E-04  2.5000E-04  2.5000E-04  2.5000E-04  2.5000E-04  2.5000E-04
       2.5000E-04  5.0000E-04  5.0000E-04  5.0000E-04  5.0000E-04  1.5000E-03  1.5000E-03  1.5000E-03  1.5000E-03  1.5000E-03
       2.0000E-04  2.0000E-04  2.0000E-04  2.0000E-04  2.0000E-04  2.0000E-04  2.0000E-04  1.5000E-03  1.5000E-03  1.0000E-04
       1.0000E-04  1.0000E-04  1.0000E-04  1.0000E-04  1.0000E-04  1.0000E-04  2.0000E-04  2.0000E-04  2.0000E-04  2.5000E-04
       5.0000E-04  5.0000E-04  5.0000E-04  2.5000E-04  2.5000E-04  2.5000E-04  2.5000E-04  2.5000E-04  2.5000E-04  5.0000E-04
       1.5000E-03  1.5000E-03  1.5000E-03  5.0000E-04  2.5000E-04  2.5000E-04   0.000       0.000       0.000    
  53    0.000       0.000      1.0000E-04  1.0000E-04  1.0000E-04  2.0000E-04  2.0000E-04  2.0000E-04  1.5000E-03  1.5000E-03
       1.5000E-03  5.0000E-04  2.0000E-04  2.0000E-04  2.0000E-04  2.0000E-04  2.0000E-04  2.0000E-04  2.0000E-04  2.0000E-04
       2.0000E-04  2.5000E-04  2.5000E-04  2.5000E-04  2.5000E-04  2.5000E-04  2.5000E-04  2.5000E-04  2.5000E-04  2.5000E-04
       2.5000E-04  5.0000E-04  5.0000E-04  5.0000E-04  5.0000E-04  1.5000E-03  1.5000E-03  1.5000E-03  1.5000E-03  2.0000E-04
       2.0000E-04  2.0000E-04  2.0000E-04  2.0000E-04  2.0000E-04  2.0000E-04  2.0000E-04  1.5000E-03  5.0000E-04  1.5000E-03
       1.0000E-04  1.0000E-04  1.0000E-04  1.0000E-04  1.0000E-04  1.0000E-04  1.0000E-04  2.0000E-04  2.0000E-04  2.5000E-04
       5.0000E-04  5.0000E-04  5.0000E-04  2.5000E-04  2.5000E-04  2.5000E-04  2.5000E-04  2.5000E-04  2.5000E-04  5.0000E-04
       5.0000E-04  1.5000E-03  1.5000E-03  5.0000E-04  2.5000E-04  2.5000E-04  2.5000E-04   0.000       0.000    
  54    0.000       0.000      1.0000E-04  1.0000E-04  1.0000E-04  2.0000E-04  2.0000E-04  2.0000E-04  1.5000E-03  1.5000E-03
       1.5000E-03  2.0000E-04  2.0000E-04  2.0000E-04  2.0000E-04  2.0000E-04  2.0000E-04  2.0000E-04  2.0000E-04  2.0000E-04
       2.0000E-04  2.5000E-04  2.5000E-04  2.5000E-04  2.5000E-04  2.5000E-04  2.5000E-04  2.5000E-04  2.5000E-04  2.5000E-04
       2.5000E-04  5.0000E-04  5.0000E-04  5.0000E-04  5.0000E-04  1.5000E-03  1.5000E-03  1.5000E-03  1.5000E-03  2.5000E-04
       2.0000E-04  2.0000E-04  2.0000E-04  1.0000E-04  1.0000E-04  1.0000E-04  2.0000E-04  5.0000E-04  5.0000E-04  5.0000E-04
       1.0000E-04  1.0000E-04  1.0000E-04  1.0000E-04  1.0000E-04  1.0000E-04  1.0000E-04  2.0000E-04  2.0000E-04  2.5000E-04
       5.0000E-04  5.0000E-04  5.0000E-04  2.5000E-04  2.5000E-04  2.5000E-04  2.5000E-04  2.5000E-04  2.5000E-04  5.0000E-04
       5.0000E-04  5.0000E-04  5.0000E-04  5.0000E-04  2.5000E-04  2.5000E-04  2.5000E-04   0.000       0.000    
  55    0.000      1.0000E-04  1.0000E-04  1.0000E-04  2.0000E-04  2.0000E-04  2.0000E-04  5.0000E-04  5.0000E-04  5.0000E-04
       5.0000E-04  2.0000E-04  2.0000E-04  2.0000E-04  2.0000E-04  2.0000E-04  2.0000E-04  2.0000E-04  2.0000E-04  2.0000E-04
       2.0000E-04  2.0000E-04  2.5000E-04  2.5000E-04  2.5000E-04  2.5000E-04  2.5000E-04  2.5000E-04  2.5000E-04  2.5000E-04
       2.5000E-04  2.5000E-04  5.0000E-04  5.0000E-04  5.0000E-04  1.5000E-03  1.5000E-03  1.5000E-03  1.5000E-03  2.5000E-04
       2.0000E-04  1.0000E-04  1.0000E-04  1.0000E-04  1.0000E-04  1.0000E-04  2.0000E-04  5.0000E-04  5.0000E-04  5.0000E-04
       1.0000E-04  1.0000E-04  1.0000E-04  1.0000E-04  1.0000E-04  1.0000E-04  1.0000E-04  2.0000E-04  2.0000E-04  2.5000E-04
       5.0000E-04  5.0000E-04  5.0000E-04  2.5000E-04  2.5000E-04  2.5000E-04  2.5000E-04  2.5000E-04  2.5000E-04  5.0000E-04
       5.0000E-04  5.0000E-04  5.0000E-04  5.0000E-04  5.0000E-04  2.5000E-04  2.5000E-04   0.000       0.000    
  56    0.000      1.0000E-04  1.0000E-04  2.0000E-04  2.0000E-04  2.0000E-04  5.0000E-04  5.0000E-04  5.0000E-04  5.0000E-04
       5.0000E-04  2.0000E-04  2.0000E-04  2.0000E-04  2.0000E-04  2.0000E-04  2.0000E-04  2.0000E-04  2.0000E-04  2.0000E-04
       2.0000E-04  2.0000E-04  2.0000E-04  2.5000E-04  2.5000E-04  2.5000E-04  2.5000E-04  2.5000E-04  2.5000E-04  2.5000E-04
       2.5000E-04  2.5000E-04  5.0000E-04  5.0000E-04  5.0000E-04  1.5000E-03  1.5000E-03  1.5000E-03  1.5000E-03  2.5000E-04
       2.0000E-04  1.0000E-04  1.0000E-04  1.0000E-04  1.0000E-04  1.0000E-04  2.0000E-04  5.0000E-04  5.0000E-04  5.0000E-04
       1.0000E-04  1.0000E-04  1.0000E-04  1.0000E-04  1.0000E-04  1.0000E-04  1.0000E-04  2.0000E-04  2.0000E-04  2.5000E-04
       5.0000E-04  5.0000E-04  5.0000E-04  2.5000E-04  2.5000E-04  2.0000E-04  2.0000E-04  2.0000E-04  2.5000E-04  2.5000E-04
       5.0000E-04  5.0000E-04  5.0000E-04  5.0000E-04  5.0000E-04  2.5000E-04  2.5000E-04   0.000       0.000    
  57   1.0000E-04  1.0000E-04  2.0000E-04  2.0000E-04  2.0000E-04  5.0000E-04  5.0000E-04  5.0000E-04  5.0000E-04  2.0000E-04
       2.0000E-04  2.0000E-04  2.0000E-04  2.0000E-04  2.0000E-04  2.0000E-04  2.0000E-04  2.0000E-04  2.0000E-04  2.0000E-04
       2.0000E-04  2.0000E-04  2.0000E-04  2.0000E-04  2.0000E-04  2.0000E-04  2.5000E-04  2.5000E-04  2.5000E-04  2.5000E-04
       2.5000E-04  2.5000E-04  5.0000E-04  5.0000E-04  5.0000E-04  1.5000E-03  1.5000E-03  1.5000E-03  2.5000E-04  2.5000E-04
       2.0000E-04  1.0000E-04  1.0000E-04  1.0000E-04  1.0000E-04  1.0000E-04  2.0000E-04  5.0000E-04  5.0000E-04  5.0000E-04
       1.0000E-04  1.0000E-04  1.0000E-04  1.0000E-04  1.0000E-04  1.0000E-04  1.0000E-04  2.0000E-04  2.0000E-04  2.0000E-04
       2.5000E-04  5.0000E-04  5.0000E-04  2.5000E-04  2.5000E-04  2.0000E-04  2.0000E-04  2.0000E-04  2.5000E-04  2.5000E-04
       5.0000E-04  5.0000E-04  2.5000E-04  2.5000E-04  2.5000E-04  2.5000E-04  2.5000E-04   0.000       0.000    
  58   1.0000E-04  1.0000E-04  2.0000E-04  2.0000E-04  2.0000E-04  5.0000E-04  2.0000E-04  2.0000E-04  2.0000E-04  2.0000E-04
       2.0000E-04  2.0000E-04  2.0000E-04  2.0000E-04  2.0000E-04  2.0000E-04  1.0000E-04  2.0000E-04  2.0000E-04  2.0000E-04
       2.0000E-04  2.0000E-04  2.0000E-04  2.0000E-04  2.0000E-04  2.0000E-04  2.0000E-04  2.5000E-04  2.5000E-04  2.5000E-04
       2.5000E-04  2.5000E-04  5.0000E-04  5.0000E-04  5.0000E-04  1.5000E-03  1.5000E-03  1.5000E-03  2.5000E-04  2.5000E-04
       2.0000E-04  1.0000E-04  1.0000E-04  1.0000E-04  1.0000E-04  1.0000E-04  1.0000E-04  2.0000E-04  5.0000E-04  5.0000E-04
       5.0000E-04  2.5000E-04  2.0000E-04  1.0000E-04  1.0000E-04  1.0000E-04  1.0000E-04  2.0000E-04  2.0000E-04  2.0000E-04
       2.5000E-04  5.0000E-04  2.5000E-04  2.5000E-04  2.5000E-04  2.0000E-04  2.0000E-04  2.0000E-04  2.5000E-04  5.0000E-04
       5.0000E-04  5.0000E-04  2.5000E-04  2.5000E-04  2.5000E-04  2.5000E-04  2.5000E-04   0.000       0.000    
  59   1.0000E-04  1.0000E-04  2.0000E-04  2.0000E-04  2.0000E-04  2.0000E-04  2.0000E-04  2.0000E-04  2.0000E-04  2.0000E-04
       2.0000E-04  1.0000E-04  1.0000E-04  1.0000E-04  1.0000E-04  1.0000E-04  1.0000E-04  2.0000E-04  2.0000E-04  2.0000E-04
       2.0000E-04  2.0000E-04  2.0000E-04  2.0000E-04  2.0000E-04  2.0000E-04  2.0000E-04  2.0000E-04  2.5000E-04  2.5000E-04
       2.5000E-04  2.5000E-04  5.0000E-04  5.0000E-04  5.0000E-04  5.0000E-04  1.5000E-03  1.5000E-03  1.5000E-03  2.5000E-04
       2.0000E-04  2.0000E-04  1.0000E-04  1.0000E-04  1.0000E-04  1.0000E-04  1.0000E-04  2.0000E-04  5.0000E-04  2.0000E-04
       5.0000E-04  2.5000E-04  2.0000E-04  1.0000E-04  1.0000E-04  1.0000E-04  1.0000E-04  2.0000E-04  2.0000E-04  2.0000E-04
       2.5000E-04  2.5000E-04  2.5000E-04  2.0000E-04  2.0000E-04  2.0000E-04  2.0000E-04  2.0000E-04  2.5000E-04  5.0000E-04
       5.0000E-04  5.0000E-04  2.5000E-04  2.5000E-04  2.5000E-04  2.5000E-04  2.5000E-04  2.5000E-04   0.000    
  60    0.000      1.0000E-04  1.0000E-04  2.0000E-04  2.0000E-04  2.0000E-04  1.0000E-04  1.0000E-04  1.0000E-04  1.0000E-04
       1.0000E-04  1.0000E-04  1.0000E-04   0.000       0.000       0.000      1.0000E-04  1.0000E-04  2.0000E-04  2.0000E-04
       2.0000E-04  2.0000E-04  2.0000E-04  2.0000E-04  2.0000E-04  2.0000E-04  2.0000E-04  2.0000E-04  2.0000E-04  2.5000E-04
       2.5000E-04  2.5000E-04  2.5000E-04  5.0000E-04  5.0000E-04  5.0000E-04  1.5000E-03  1.5000E-03  1.5000E-03  2.5000E-04
       2.0000E-04  2.0000E-04  1.0000E-04  1.0000E-04  1.0000E-04  1.0000E-04  1.0000E-04  2.0000E-04  2.0000E-04  2.0000E-04
       5.0000E-04  2.5000E-04  2.0000E-04  1.0000E-04  2.0000E-04  2.0000E-04  2.0000E-04  2.0000E-04  2.0000E-04  2.5000E-04
       2.5000E-04  2.5000E-04  2.0000E-04  2.0000E-04  2.0000E-04  2.0000E-04  2.0000E-04  2.0000E-04  2.5000E-04  5.0000E-04
       5.0000E-04  2.5000E-04  2.5000E-04  2.5000E-04  2.5000E-04  2.5000E-04  2.5000E-04  2.5000E-04  2.5000E-04
  61    0.000       0.000      1.0000E-04  1.0000E-04  1.0000E-04  1.0000E-04  1.0000E-04  1.0000E-04  1.0000E-04  1.0000E-04
       1.0000E-04   0.000       0.000       0.000       0.000       0.000       0.000      1.0000E-04  1.0000E-04  2.0000E-04
       2.0000E-04  2.0000E-04  2.0000E-04  2.0000E-04  2.0000E-04  2.0000E-04  2.0000E-04  2.0000E-04  2.0000E-04  2.0000E-04
       2.5000E-04  2.5000E-04  2.5000E-04  5.0000E-04  5.0000E-04  5.0000E-04  1.5000E-03  1.5000E-03  1.5000E-03  2.5000E-04
       2.0000E-04  2.0000E-04  1.0000E-04  1.0000E-04  1.0000E-04  1.0000E-04  1.0000E-04  1.0000E-04  2.0000E-04  2.0000E-04
       5.0000E-04  5.0000E-04  2.0000E-04  2.0000E-04  2.0000E-04  2.0000E-04  2.0000E-04  2.0000E-04  2.0000E-04  2.0000E-04
       2.0000E-04  2.0000E-04  2.0000E-04  2.0000E-04  2.0000E-04  2.0000E-04  2.0000E-04  2.0000E-04  2.5000E-04  5.0000E-04
       5.0000E-04  2.5000E-04  2.5000E-04  2.5000E-04  2.5000E-04  2.5000E-04  2.5000E-04  2.5000E-04  2.5000E-04
  62    0.000       0.000       0.000      1.0000E-04   0.000       0.000       0.000       0.000       0.000       0.000    
        0.000       0.000       0.000       0.000       0.000       0.000       0.000       0.000       0.000      1.0000E-04
       2.0000E-04  2.0000E-04  2.0000E-04  2.0000E-04  2.0000E-04  2.0000E-04  2.0000E-04  2.0000E-04  2.0000E-04  2.0000E-04
       2.5000E-04  2.5000E-04  2.5000E-04  5.0000E-04  5.0000E-04  5.0000E-04  1.5000E-03  1.5000E-03  5.0000E-04  2.5000E-04
       2.0000E-04  2.0000E-04  1.0000E-04  1.0000E-04  1.0000E-04  1.0000E-04  1.0000E-04  1.0000E-04  2.0000E-04  2.0000E-04
       2.0000E-04  2.0000E-04  5.0000E-04  2.0000E-04  2.0000E-04  2.0000E-04  2.0000E-04  2.0000E-04  2.0000E-04  2.0000E-04
       2.0000E-04  2.0000E-04  2.0000E-04  2.0000E-04  2.0000E-04  2.0000E-04  2.0000E-04  2.0000E-04  2.5000E-04  5.0000E-04
       2.5000E-04  2.5000E-04  2.5000E-04  2.5000E-04  2.5000E-04  2.5000E-04  2.5000E-04  2.0000E-04  2.0000E-04
  63    0.000       0.000       0.000       0.000       0.000       0.000       0.000       0.000       0.000       0.000    
        0.000       0.000       0.000       0.000       0.000       0.000       0.000       0.000       0.000      1.0000E-04
       1.0000E-04  1.0000E-04  2.0000E-04  2.0000E-04  2.0000E-04  2.0000E-04  2.0000E-04  2.0000E-04  2.0000E-04  2.0000E-04
       2.0000E-04  2.5000E-04  2.5000E-04  5.0000E-04  5.0000E-04  5.0000E-04  1.5000E-03  1.5000E-03  5.0000E-04  2.5000E-04
       2.5000E-04  2.0000E-04  2.0000E-04  1.0000E-04  1.0000E-04  1.0000E-04  1.0000E-04  1.0000E-04  1.0000E-04  1.0000E-04
       2.0000E-04  2.0000E-04  5.0000E-04  5.0000E-04  2.0000E-04  2.0000E-04  2.0000E-04  2.0000E-04  2.0000E-04  2.0000E-04
       2.0000E-04  2.0000E-04  2.0000E-04  2.0000E-04  2.0000E-04  2.0000E-04  2.0000E-04  2.0000E-04  2.5000E-04  2.5000E-04
       2.5000E-04  2.5000E-04  2.5000E-04  2.5000E-04  2.5000E-04  2.5000E-04  2.5000E-04  2.0000E-04  2.0000E-04
  64    0.000       0.000       0.000       0.000       0.000       0.000       0.000       0.000       0.000       0.000    
        0.000       0.000       0.000       0.000       0.000       0.000       0.000       0.000       0.000       0.000    
        0.000       0.000       0.000       0.000      2.0000E-04  2.0000E-04  2.0000E-04  2.0000E-04  2.0000E-04  2.0000E-04
       2.0000E-04  2.0000E-04  2.5000E-04  2.5000E-04  5.0000E-04  5.0000E-04  5.0000E-04  1.5000E-03  1.5000E-03  5.0000E-04
       2.0000E-04  2.0000E-04  2.0000E-04  1.0000E-04  1.0000E-04  1.0000E-04  1.0000E-04  1.0000E-04  1.0000E-04  1.0000E-04
       2.0000E-04  2.0000E-04  2.5000E-04  5.0000E-04  2.0000E-04  2.0000E-04  2.0000E-04  2.0000E-04  2.0000E-04  2.0000E-04
       2.0000E-04  2.0000E-04  2.0000E-04  2.0000E-04  2.0000E-04  2.0000E-04  2.0000E-04  2.5000E-04  2.5000E-04  2.5000E-04
       2.5000E-04  2.5000E-04  2.5000E-04  2.5000E-04  2.5000E-04  2.5000E-04  2.0000E-04  2.0000E-04  2.0000E-04
  65    0.000       0.000       0.000       0.000       0.000       0.000       0.000       0.000       0.000       0.000    
        0.000       0.000       0.000       0.000       0.000       0.000       0.000       0.000       0.000       0.000    
        0.000       0.000       0.000       0.000       0.000       0.000       0.000       0.000       0.000       0.000    
        0.000       0.000       0.000      2.5000E-04  5.0000E-04  5.0000E-04  5.0000E-04  5.0000E-04  5.0000E-04  5.0000E-04
       2.0000E-04  2.0000E-04  2.0000E-04  1.0000E-04  1.0000E-04   0.000       0.000       0.000       0.000      1.0000E-04
       1.0000E-04  2.0000E-04  2.5000E-04  2.5000E-04  2.0000E-04  2.0000E-04  2.0000E-04  2.0000E-04  2.0000E-04  2.0000E-04
       2.0000E-04  2.0000E-04  2.0000E-04  2.0000E-04  2.0000E-04  2.0000E-04  2.0000E-04  2.5000E-04  2.5000E-04  2.5000E-04
       2.5000E-04  2.5000E-04  2.5000E-04  2.5000E-04  2.5000E-04  2.5000E-04  2.5000E-04  2.0000E-04  2.0000E-04
  66    0.000       0.000       0.000       0.000       0.000       0.000       0.000       0.000       0.000       0.000    
        0.000       0.000       0.000       0.000       0.000       0.000       0.000       0.000       0.000       0.000    
        0.000       0.000       0.000       0.000       0.000       0.000       0.000       0.000       0.000       0.000    
        0.000       0.000       0.000       0.000       0.000      2.5000E-04  2.5000E-04   0.000       0.000       0.000    
        0.000       0.000       0.000       0.000       0.000       0.000       0.000       0.000       0.000       0.000    
       1.0000E-04  2.0000E-04  2.5000E-04  2.5000E-04  2.5000E-04  2.0000E-04  2.0000E-04  2.0000E-04  2.0000E-04  2.0000E-04
       2.0000E-04  2.0000E-04  2.0000E-04  2.0000E-04  2.0000E-04  2.0000E-04  2.0000E-04  2.0000E-04  2.5000E-04  2.5000E-04
       2.5000E-04  2.5000E-04  2.5000E-04  2.5000E-04  2.5000E-04  2.5000E-04  2.5000E-04  2.0000E-04  2.0000E-04
  67    0.000       0.000       0.000       0.000       0.000       0.000       0.000       0.000       0.000       0.000    
        0.000       0.000       0.000       0.000       0.000       0.000       0.000       0.000       0.000       0.000    
        0.000       0.000       0.000       0.000       0.000       0.000       0.000       0.000       0.000       0.000    
        0.000       0.000       0.000       0.000       0.000       0.000       0.000       0.000       0.000       0.000    
        0.000       0.000       0.000       0.000       0.000       0.000       0.000       0.000       0.000       0.000    
        0.000       0.000      1.0000E-04  2.5000E-04  2.0000E-04  2.0000E-04  2.0000E-04  2.0000E-04  2.0000E-04  1.0000E-04
       1.0000E-04  1.0000E-04  1.0000E-04  1.0000E-04  2.0000E-04  2.0000E-04  2.0000E-04  2.0000E-04  2.5000E-04  2.5000E-04
       2.5000E-04   0.000       0.000       0.000       0.000       0.000       0.000       0.000       0.000    
  68    0.000       0.000       0.000       0.000       0.000       0.000       0.000       0.000       0.000       0.000    
        0.000       0.000       0.000       0.000       0.000       0.000       0.000       0.000       0.000       0.000    
        0.000       0.000       0.000       0.000       0.000       0.000       0.000       0.000       0.000       0.000    
        0.000       0.000       0.000       0.000       0.000       0.000       0.000       0.000       0.000       0.000    
        0.000       0.000       0.000       0.000       0.000       0.000       0.000       0.000       0.000       0.000    
        0.000       0.000       0.000      1.0000E-04  2.0000E-04  2.0000E-04  2.0000E-04  1.0000E-04  1.0000E-04  1.0000E-04
       1.0000E-04  1.0000E-04  1.0000E-04  1.0000E-04  2.0000E-04  2.0000E-04  2.0000E-04  2.5000E-04   0.000       0.000    
        0.000       0.000       0.000       0.000       0.000       0.000       0.000       0.000       0.000    
  69    0.000       0.000       0.000       0.000       0.000       0.000       0.000       0.000       0.000       0.000    
        0.000       0.000       0.000       0.000       0.000       0.000       0.000       0.000       0.000       0.000    
        0.000       0.000       0.000       0.000       0.000       0.000       0.000       0.000       0.000       0.000    
        0.000       0.000       0.000       0.000       0.000       0.000       0.000       0.000       0.000       0.000    
        0.000       0.000       0.000       0.000       0.000       0.000       0.000       0.000       0.000       0.000    
        0.000       0.000       0.000       0.000       0.000       0.000       0.000       0.000       0.000       0.000    
       1.0000E-04  1.0000E-04  1.0000E-04  1.0000E-04  2.5000E-04  2.5000E-04  2.5000E-04   0.000       0.000       0.000    
        0.000       0.000       0.000       0.000       0.000       0.000       0.000       0.000       0.000    
  70    0.000       0.000       0.000       0.000       0.000       0.000       0.000       0.000       0.000       0.000    
        0.000       0.000       0.000       0.000       0.000       0.000       0.000       0.000       0.000       0.000    
        0.000       0.000       0.000       0.000       0.000       0.000       0.000       0.000       0.000       0.000    
        0.000       0.000       0.000       0.000       0.000       0.000       0.000       0.000       0.000       0.000    
        0.000       0.000       0.000       0.000       0.000       0.000       0.000       0.000       0.000       0.000    
        0.000       0.000       0.000       0.000       0.000       0.000       0.000       0.000       0.000       0.000    
        0.000      1.0000E-04  1.0000E-04  1.0000E-04  2.5000E-04  2.5000E-04   0.000       0.000       0.000       0.000    
        0.000       0.000       0.000       0.000       0.000       0.000       0.000       0.000       0.000    
  71    0.000       0.000       0.000       0.000       0.000       0.000       0.000       0.000       0.000       0.000    
        0.000       0.000       0.000       0.000       0.000       0.000       0.000       0.000       0.000       0.000    
        0.000       0.000       0.000       0.000       0.000       0.000       0.000       0.000       0.000       0.000    
        0.000       0.000       0.000       0.000       0.000       0.000       0.000       0.000       0.000       0.000    
        0.000       0.000       0.000       0.000       0.000       0.000       0.000       0.000       0.000       0.000    
        0.000       0.000       0.000       0.000       0.000       0.000       0.000       0.000       0.000       0.000    
        0.000       0.000      1.0000E-04  2.0000E-04   0.000       0.000       0.000       0.000       0.000       0.000    
        0.000       0.000       0.000       0.000       0.000       0.000       0.000       0.000       0.000    

     BROOKS-COREY EPSILON =   4.00000    



            SATURATED WATER CONTENT
 READING ON UNIT   14 WITH FORMAT: (FREE)              

            1           2           3           4           5           6           7           8           9          10
           11          12          13          14          15          16          17          18          19          20
           21          22          23          24          25          26          27          28          29          30
           31          32          33          34          35          36          37          38          39          40
           41          42          43          44          45          46          47          48          49          50
           51          52          53          54          55          56          57          58          59          60
           61          62          63          64          65          66          67          68          69          70
           71          72          73          74          75          76          77          78          79
 ........................................................................................................................
   1    0.000       0.000       0.000       0.000       0.000       0.000       0.000       0.000       0.000       0.000    
        0.000       0.000       0.000       0.000       0.000       0.000       0.000       0.000       0.000       0.000    
        0.000       0.000       0.000       0.000       0.000       0.000       0.000       0.000       0.000       0.000    
        0.000       0.000       0.000       0.000       0.000       0.000       0.000       0.000       0.000       0.000    
        0.000       0.000       0.000       0.000       0.000       0.000       0.000       0.000       0.000       0.000    
        0.000      0.1300      0.1300       0.000       0.000       0.000       0.000       0.000       0.000       0.000    
        0.000       0.000       0.000       0.000       0.000       0.000       0.000       0.000       0.000       0.000    
        0.000       0.000       0.000       0.000       0.000       0.000       0.000       0.000       0.000    
   2    0.000       0.000       0.000       0.000       0.000       0.000       0.000       0.000       0.000       0.000    
        0.000       0.000       0.000       0.000       0.000       0.000       0.000       0.000       0.000       0.000    
        0.000       0.000       0.000       0.000       0.000       0.000       0.000       0.000       0.000       0.000    
        0.000       0.000       0.000       0.000       0.000       0.000       0.000       0.000       0.000       0.000    
        0.000       0.000       0.000       0.000       0.000       0.000       0.000       0.000       0.000       0.000    
        0.000      0.1300      0.1400      0.1400       0.000       0.000       0.000       0.000       0.000       0.000    
        0.000       0.000       0.000       0.000       0.000       0.000       0.000       0.000       0.000       0.000    
        0.000       0.000       0.000       0.000       0.000       0.000       0.000       0.000       0.000    
   3    0.000       0.000       0.000       0.000       0.000       0.000       0.000       0.000       0.000       0.000    
        0.000       0.000       0.000       0.000       0.000       0.000       0.000       0.000       0.000       0.000    
        0.000       0.000       0.000       0.000       0.000       0.000       0.000       0.000       0.000       0.000    
        0.000       0.000       0.000       0.000       0.000       0.000       0.000       0.000       0.000       0.000    
        0.000       0.000       0.000       0.000       0.000       0.000       0.000       0.000       0.000       0.000    
        0.000      0.1300      0.1400      0.2000       0.000       0.000       0.000       0.000       0.000       0.000    
        0.000       0.000       0.000       0.000       0.000       0.000       0.000       0.000       0.000       0.000    
        0.000       0.000       0.000       0.000       0.000       0.000       0.000       0.000       0.000    
   4    0.000       0.000       0.000       0.000       0.000       0.000       0.000       0.000       0.000       0.000    
        0.000       0.000       0.000       0.000       0.000       0.000       0.000       0.000       0.000       0.000    
        0.000       0.000       0.000       0.000       0.000       0.000       0.000       0.000       0.000       0.000    
        0.000       0.000       0.000       0.000       0.000       0.000       0.000       0.000       0.000       0.000    
        0.000       0.000       0.000       0.000       0.000       0.000       0.000       0.000       0.000       0.000    
        0.000      0.1400      0.1400      0.2000      0.2000       0.000       0.000       0.000       0.000       0.000    
        0.000       0.000       0.000       0.000       0.000       0.000       0.000       0.000       0.000       0.000    
        0.000       0.000       0.000       0.000       0.000       0.000       0.000       0.000       0.000    
   5    0.000       0.000       0.000       0.000       0.000       0.000       0.000       0.000       0.000       0.000    
        0.000       0.000       0.000       0.000       0.000       0.000       0.000       0.000       0.000       0.000    
        0.000       0.000       0.000       0.000       0.000       0.000       0.000       0.000       0.000       0.000    
        0.000       0.000       0.000       0.000       0.000       0.000       0.000       0.000       0.000       0.000    
        0.000       0.000       0.000       0.000       0.000       0.000       0.000       0.000       0.000       0.000    
        0.000      0.1400      0.1400      0.1400      0.2000      0.1400      0.1400       0.000       0.000       0.000    
        0.000       0.000       0.000       0.000       0.000       0.000       0.000       0.000       0.000       0.000    
        0.000       0.000       0.000       0.000       0.000       0.000       0.000       0.000       0.000    
   6    0.000       0.000       0.000       0.000       0.000       0.000       0.000       0.000       0.000       0.000    
        0.000       0.000       0.000       0.000       0.000       0.000       0.000       0.000       0.000       0.000    
        0.000       0.000       0.000       0.000       0.000       0.000       0.000       0.000       0.000       0.000    
        0.000       0.000       0.000       0.000       0.000       0.000       0.000       0.000       0.000       0.000    
        0.000       0.000       0.000       0.000       0.000       0.000       0.000       0.000       0.000       0.000    
        0.000      0.1400      0.1400      0.1400      0.2000      0.2000      0.1400      0.1400      0.1400       0.000    
        0.000       0.000       0.000      0.1400      0.1400       0.000       0.000       0.000       0.000       0.000    
        0.000       0.000       0.000       0.000       0.000       0.000       0.000       0.000       0.000    
   7    0.000       0.000       0.000       0.000       0.000       0.000       0.000       0.000       0.000       0.000    
        0.000       0.000       0.000       0.000       0.000       0.000       0.000       0.000       0.000       0.000    
        0.000       0.000       0.000       0.000       0.000       0.000       0.000       0.000       0.000       0.000    
        0.000       0.000       0.000       0.000       0.000       0.000       0.000       0.000       0.000       0.000    
        0.000       0.000       0.000       0.000       0.000       0.000       0.000       0.000       0.000       0.000    
        0.000      0.1400      0.1400      0.1400      0.2000      0.2000      0.2000      0.1400      0.1400      0.1400    
       0.1400      0.1400      0.1400      0.1400      0.1400      0.1400       0.000       0.000       0.000       0.000    
        0.000       0.000       0.000       0.000       0.000       0.000       0.000       0.000       0.000    
   8    0.000       0.000       0.000       0.000       0.000       0.000       0.000       0.000       0.000       0.000    
        0.000       0.000       0.000       0.000       0.000       0.000       0.000       0.000       0.000       0.000    
        0.000       0.000       0.000       0.000       0.000       0.000       0.000       0.000       0.000       0.000    
        0.000       0.000       0.000       0.000       0.000       0.000       0.000       0.000       0.000       0.000    
        0.000       0.000       0.000       0.000       0.000       0.000       0.000       0.000       0.000       0.000    
        0.000      0.1400      0.1400      0.1400      0.2000      0.2000      0.2000      0.1400      0.1400      0.1400    
       0.1400      0.1400      0.1400      0.1400      0.1400      0.1400      0.1400      0.1400       0.000       0.000    
        0.000       0.000       0.000       0.000       0.000       0.000       0.000       0.000       0.000    
   9    0.000       0.000       0.000       0.000       0.000       0.000       0.000       0.000       0.000       0.000    
        0.000       0.000       0.000       0.000       0.000       0.000       0.000       0.000       0.000       0.000    
        0.000       0.000       0.000       0.000       0.000       0.000       0.000       0.000       0.000       0.000    
        0.000       0.000       0.000       0.000       0.000       0.000       0.000       0.000       0.000       0.000    
        0.000       0.000       0.000       0.000       0.000       0.000       0.000       0.000       0.000       0.000    
       0.1300      0.1400      0.1400      0.1400      0.2000      0.2000      0.2000      0.1400      0.1400      0.1400    
       0.1400      0.1400      0.1400      0.1400      0.1400      0.1400      0.1400      0.1400      0.1400       0.000    
        0.000       0.000       0.000       0.000       0.000       0.000       0.000       0.000       0.000    
  10    0.000       0.000       0.000       0.000       0.000       0.000       0.000       0.000       0.000       0.000    
        0.000       0.000       0.000       0.000       0.000       0.000       0.000       0.000       0.000       0.000    
        0.000       0.000       0.000       0.000       0.000       0.000       0.000       0.000       0.000       0.000    
        0.000       0.000       0.000       0.000       0.000       0.000       0.000       0.000       0.000       0.000    
        0.000       0.000       0.000       0.000       0.000       0.000       0.000       0.000       0.000      0.1400    
       0.1400      0.1400      0.1400      0.1400      0.1400      0.2000      0.2000      0.2000      0.1400      0.1400    
       0.1400      0.1400      0.1400      0.1400      0.1400      0.1400      0.1400      0.1400      0.1400      0.1400    
        0.000       0.000       0.000       0.000       0.000       0.000       0.000       0.000       0.000    
  11    0.000       0.000       0.000       0.000       0.000       0.000       0.000       0.000       0.000       0.000    
        0.000       0.000       0.000       0.000       0.000       0.000       0.000       0.000       0.000       0.000    
        0.000       0.000       0.000       0.000       0.000       0.000       0.000       0.000       0.000       0.000    
        0.000       0.000       0.000       0.000       0.000       0.000       0.000       0.000       0.000       0.000    
        0.000       0.000       0.000       0.000       0.000       0.000       0.000       0.000      0.1400      0.1400    
       0.1400      0.1400      0.1400      0.1400      0.1400      0.2000      0.2000      0.2000      0.1400      0.1400    
       0.1400      0.1400      0.1400      0.1400      0.1400      0.1400      0.1400      0.1400      0.1400      0.1400    
       0.1400       0.000       0.000       0.000       0.000       0.000       0.000       0.000       0.000    
  12    0.000       0.000       0.000       0.000       0.000       0.000       0.000       0.000       0.000       0.000    
        0.000       0.000       0.000       0.000       0.000       0.000       0.000       0.000       0.000       0.000    
        0.000       0.000       0.000       0.000       0.000       0.000       0.000       0.000       0.000       0.000    
        0.000       0.000       0.000       0.000       0.000       0.000       0.000       0.000       0.000       0.000    
        0.000      0.1300      0.1300       0.000       0.000       0.000       0.000      0.1300      0.1400      0.1400    
       0.1400      0.1400      0.1400      0.1400      0.1400      0.2000      0.2000      0.2000      0.1400      0.1400    
       0.1400      0.1400      0.1400      0.1400      0.1400      0.1400      0.1400      0.1400      0.1400      0.1400    
       0.1400       0.000       0.000       0.000       0.000       0.000       0.000       0.000       0.000    
  13    0.000       0.000       0.000       0.000       0.000       0.000       0.000       0.000       0.000       0.000    
        0.000       0.000       0.000       0.000       0.000       0.000       0.000       0.000       0.000       0.000    
        0.000       0.000       0.000       0.000       0.000       0.000       0.000       0.000       0.000       0.000    
        0.000       0.000       0.000       0.000       0.000       0.000       0.000       0.000      0.1300      0.1300    
       0.1300      0.1300      0.1300      0.1300      0.1300      0.1300      0.1300      0.1300      0.1400      0.1400    
       0.1400      0.1400      0.1400      0.1400      0.1400      0.2000      0.2000      0.2000      0.1400      0.1400    
       0.1400      0.1400      0.1400      0.1400      0.1400      0.1400      0.1400      0.1400      0.1400      0.1400    
       0.1400      0.1400       0.000       0.000       0.000       0.000       0.000       0.000       0.000    
  14    0.000       0.000       0.000       0.000       0.000       0.000       0.000       0.000       0.000       0.000    
        0.000       0.000       0.000       0.000       0.000       0.000       0.000       0.000       0.000       0.000    
        0.000       0.000       0.000       0.000       0.000       0.000       0.000       0.000       0.000       0.000    
        0.000       0.000       0.000       0.000       0.000       0.000       0.000       0.000      0.1300      0.1300    
       0.1300      0.1300      0.1300      0.1300      0.1400      0.1400      0.1400      0.1400      0.1400      0.1400    
       0.1400      0.1400      0.1400      0.1400      0.1400      0.2000      0.2000      0.2000      0.2000      0.2000    
       0.1400      0.1400      0.1400      0.1400      0.1400      0.1400      0.1400      0.2000      0.1400      0.1400    
       0.1400      0.1400      0.1400       0.000       0.000       0.000       0.000       0.000       0.000    
  15    0.000       0.000       0.000       0.000       0.000       0.000       0.000       0.000       0.000       0.000    
        0.000       0.000       0.000       0.000       0.000       0.000       0.000       0.000       0.000       0.000    
        0.000       0.000       0.000       0.000       0.000       0.000       0.000       0.000       0.000       0.000    
        0.000       0.000       0.000       0.000       0.000       0.000       0.000      0.1300      0.1300      0.1300    
       0.1400      0.1400      0.1400      0.1400      0.1400      0.1400      0.1400      0.1400      0.1400      0.1400    
       0.1400      0.1400      0.1400      0.1400      0.1400      0.1400      0.2000      0.2000      0.2000      0.2000    
       0.2000      0.1400      0.1400      0.2000      0.2000      0.2000      0.2000      0.2000      0.2000      0.1400    
       0.1400      0.1400      0.1400       0.000       0.000       0.000       0.000       0.000       0.000    
  16    0.000       0.000       0.000       0.000       0.000       0.000       0.000       0.000       0.000       0.000    
        0.000       0.000       0.000       0.000       0.000       0.000       0.000       0.000       0.000       0.000    
        0.000       0.000       0.000       0.000       0.000       0.000       0.000       0.000       0.000       0.000    
        0.000       0.000       0.000       0.000       0.000       0.000      0.1300      0.1300      0.1300      0.1300    
       0.1300      0.1400      0.1400      0.1400      0.1400      0.1400      0.1400      0.1400      0.1400      0.1400    
       0.1400      0.1400      0.1400      0.1400      0.1400      0.1400      0.2000      0.2000      0.2000      0.2000    
       0.2000      0.2000      0.2000      0.2000      0.2000      0.2000      0.2000      0.2000      0.2000      0.1400    
       0.1400      0.1400      0.1400      0.1400       0.000       0.000       0.000       0.000       0.000    
  17    0.000       0.000       0.000       0.000       0.000       0.000       0.000       0.000       0.000       0.000    
        0.000       0.000       0.000       0.000       0.000       0.000       0.000       0.000       0.000       0.000    
        0.000       0.000       0.000       0.000       0.000       0.000       0.000       0.000       0.000       0.000    
        0.000       0.000       0.000       0.000       0.000      0.1300      0.1300      0.1300      0.1300      0.1300    
       0.1300      0.1400      0.1400      0.1400      0.1400      0.1400      0.1400      0.1400      0.1400      0.1400    
       0.1400      0.1400      0.1400      0.1400      0.1400      0.1400      0.2000      0.2000      0.2000      0.2000    
       0.2000      0.2000      0.2000      0.2000      0.2000      0.2000      0.2000      0.2000      0.2000      0.1400    
       0.1400      0.1400      0.1400      0.1400       0.000       0.000       0.000       0.000       0.000    
  18    0.000       0.000       0.000       0.000       0.000       0.000       0.000       0.000       0.000       0.000    
        0.000       0.000       0.000       0.000       0.000       0.000       0.000       0.000       0.000       0.000    
        0.000       0.000       0.000       0.000       0.000       0.000       0.000       0.000       0.000       0.000    
        0.000       0.000       0.000       0.000      0.1300      0.1300      0.1300      0.1300      0.1300      0.1300    
       0.1300      0.1300      0.1300      0.1400      0.1400      0.1400      0.1400      0.1400      0.1400      0.1400    
       0.1400      0.1400      0.1400      0.1400      0.1400      0.1400      0.2000      0.2000      0.2000      0.2000    
       0.2000      0.2000      0.2000      0.2000      0.2000      0.2000      0.2000      0.2000      0.2000      0.2000    
       0.1400      0.1400      0.1400      0.1400       0.000       0.000       0.000       0.000       0.000    
  19    0.000       0.000       0.000       0.000       0.000       0.000       0.000       0.000       0.000       0.000    
        0.000       0.000       0.000       0.000       0.000       0.000       0.000       0.000       0.000       0.000    
        0.000       0.000       0.000       0.000       0.000       0.000       0.000       0.000       0.000       0.000    
        0.000       0.000       0.000      0.1300      0.1300      0.1300      0.1300      0.1300      0.1300      0.1300    
       0.1300      0.1300      0.1300      0.1300      0.1400      0.1400      0.1400      0.1400      0.1400      0.1400    
       0.1400      0.1400      0.1400      0.1400      0.1400      0.1400      0.1400      0.2000      0.2000      0.2000    
       0.2000      0.2000      0.2000      0.2000      0.2000      0.2000      0.2000      0.2000      0.2000      0.2000    
       0.1400      0.1400      0.1400      0.1400       0.000       0.000       0.000       0.000       0.000    
  20    0.000       0.000       0.000       0.000       0.000       0.000       0.000       0.000       0.000       0.000    
        0.000       0.000       0.000       0.000       0.000       0.000       0.000       0.000       0.000       0.000    
        0.000       0.000       0.000       0.000       0.000       0.000       0.000       0.000       0.000       0.000    
        0.000       0.000       0.000      0.1300      0.1300      0.1300      0.1300      0.1300      0.1300      0.1300    
       0.1300      0.1300      0.1300      0.1300      0.1400      0.1400      0.1400      0.1400      0.1400      0.1400    
       0.1400      0.1400      0.1400      0.1400      0.1400      0.1400      0.1400      0.2000      0.2000      0.2000    
       0.2000      0.2000      0.2000      0.2000      0.2000      0.2000      0.2000      0.2000      0.2000      0.2000    
       0.1400      0.1400      0.1400      0.1400       0.000       0.000       0.000       0.000       0.000    
  21    0.000       0.000       0.000       0.000       0.000       0.000       0.000       0.000       0.000       0.000    
        0.000       0.000       0.000       0.000       0.000       0.000       0.000       0.000       0.000       0.000    
        0.000       0.000       0.000       0.000       0.000       0.000       0.000       0.000       0.000       0.000    
        0.000       0.000      0.1300      0.1300      0.1300      0.1300      0.1300      0.1300      0.1300      0.1300    
       0.1300      0.1300      0.1300      0.1300      0.1300      0.1400      0.1400      0.1400      0.1400      0.1400    
       0.1400      0.1400      0.1400      0.1400      0.1400      0.1400      0.1400      0.1400      0.2000      0.2000    
       0.2000      0.2000      0.2000      0.2000      0.2000      0.2000      0.2000      0.2000      0.2000      0.1400    
       0.1400      0.1400      0.1400      0.1400      0.1400       0.000       0.000       0.000       0.000    
  22    0.000       0.000       0.000       0.000       0.000       0.000       0.000       0.000       0.000       0.000    
        0.000       0.000       0.000       0.000       0.000       0.000       0.000       0.000       0.000       0.000    
        0.000       0.000       0.000       0.000       0.000       0.000       0.000       0.000       0.000       0.000    
        0.000       0.000      0.1300      0.1300      0.1300      0.1300      0.1300      0.1300      0.1300      0.1300    
       0.1300      0.1300      0.1300      0.1300      0.1300      0.1400      0.1400      0.1400      0.1400      0.1400    
       0.1400      0.1400      0.1400      0.1400      0.1400      0.1400      0.1400      0.1400      0.1400      0.1400    
       0.1400      0.2000      0.2000      0.2000      0.2000      0.2000      0.2000      0.2000      0.2000      0.1400    
       0.1400      0.1400      0.1400      0.1400       0.000       0.000       0.000       0.000       0.000    
  23    0.000       0.000       0.000       0.000       0.000       0.000       0.000       0.000       0.000       0.000    
        0.000       0.000       0.000       0.000       0.000       0.000       0.000       0.000       0.000       0.000    
        0.000       0.000       0.000       0.000       0.000       0.000       0.000       0.000       0.000       0.000    
        0.000      0.1300      0.1300      0.1300      0.1300      0.1300      0.1300      0.1300      0.1300      0.1300    
       0.1300      0.1300      0.1300      0.1300      0.1300      0.1400      0.1400      0.2000      0.1400      0.1400    
       0.1400      0.1400      0.1400      0.1400      0.1400      0.1400      0.1400      0.1400      0.1400      0.1400    
       0.1400      0.1400      0.2000      0.2000      0.2000      0.2000      0.2000      0.2000      0.2000      0.1400    
       0.1400       0.000       0.000       0.000       0.000       0.000       0.000       0.000       0.000    
  24    0.000       0.000       0.000       0.000       0.000       0.000       0.000       0.000       0.000       0.000    
        0.000       0.000       0.000       0.000       0.000       0.000       0.000       0.000       0.000       0.000    
        0.000       0.000       0.000       0.000       0.000       0.000       0.000       0.000      0.1300      0.1300    
       0.1300      0.1300      0.1300      0.1300      0.1300      0.1300      0.1300      0.1300      0.1300      0.1300    
       0.1300      0.1300      0.1300      0.1300      0.1300      0.1400      0.1400      0.2000      0.2000      0.1400    
       0.1400      0.1400      0.1400      0.1400      0.1400      0.1400      0.1400      0.1400      0.1400      0.1400    
       0.1400      0.1400      0.1400      0.2000      0.2000      0.2000      0.2000      0.2000      0.2000      0.1400    
       0.1400       0.000       0.000       0.000       0.000       0.000       0.000       0.000       0.000    
  25    0.000       0.000       0.000       0.000       0.000       0.000       0.000       0.000       0.000       0.000    
        0.000       0.000       0.000       0.000       0.000       0.000       0.000       0.000       0.000       0.000    
        0.000       0.000       0.000       0.000       0.000       0.000       0.000      0.1300      0.1300      0.1300    
       0.1300      0.1300      0.1300      0.1300      0.1300      0.1300      0.1300      0.1300      0.1300      0.1300    
       0.1300      0.1300      0.1300      0.1300      0.1400      0.1400      0.1400      0.2000      0.2000      0.1400    
       0.1400      0.1400      0.1400      0.1400      0.1400      0.1400      0.1400      0.1400      0.1400      0.1400    
       0.1400      0.1400      0.1400      0.1400      0.1400      0.2000      0.2000      0.2000      0.2000      0.1400    
       0.1400       0.000       0.000       0.000       0.000       0.000       0.000       0.000       0.000    
  26    0.000       0.000       0.000       0.000       0.000       0.000       0.000       0.000       0.000       0.000    
        0.000       0.000       0.000       0.000       0.000       0.000       0.000       0.000       0.000       0.000    
        0.000       0.000       0.000       0.000       0.000      0.1300      0.1300      0.1300      0.1300      0.1300    
       0.1300      0.1300      0.1300      0.1300      0.1300      0.1300      0.1300      0.1300      0.1300      0.1300    
       0.1300      0.1300      0.1400      0.1400      0.1400      0.1400      0.1400      0.1400      0.2000      0.2000    
       0.2000      0.1400      0.1400      0.1400      0.1400      0.1400      0.1400      0.1400      0.1400      0.1400    
       0.1400      0.1400      0.1400      0.1400      0.1400      0.2000      0.2000      0.2000      0.2000      0.1400    
       0.1400       0.000       0.000       0.000       0.000       0.000       0.000       0.000       0.000    
  27    0.000       0.000       0.000       0.000       0.000       0.000       0.000       0.000       0.000       0.000    
        0.000       0.000       0.000       0.000       0.000       0.000       0.000       0.000       0.000       0.000    
        0.000       0.000       0.000       0.000      0.1300      0.1300      0.1300      0.1300      0.1300      0.1300    
       0.1300      0.1300      0.1300      0.1300      0.1300      0.1300      0.1300      0.1300      0.1300      0.1300    
       0.1300      0.1400      0.1400      0.1400      0.1400      0.1400      0.1400      0.1400      0.1400      0.2000    
       0.2000      0.1400      0.1400      0.1400      0.1400      0.1400      0.1400      0.1400      0.1400      0.1400    
       0.1400      0.1400      0.1400      0.1400      0.1400      0.2000      0.2000      0.2000      0.2000      0.2000    
       0.1400       0.000       0.000       0.000       0.000       0.000       0.000       0.000       0.000    
  28    0.000       0.000       0.000       0.000       0.000       0.000       0.000       0.000       0.000       0.000    
        0.000       0.000       0.000       0.000       0.000       0.000       0.000       0.000       0.000       0.000    
        0.000       0.000       0.000      0.1300      0.1300      0.1300      0.1300      0.1300      0.1300      0.1300    
       0.1300      0.1300      0.1300      0.1300      0.1300      0.1300      0.1300      0.1300      0.1400      0.1400    
       0.1400      0.1400      0.1400      0.1400      0.1400      0.1400      0.1400      0.1400      0.1400      0.1400    
       0.2000      0.2000      0.1400      0.1400      0.1400      0.1400      0.1400      0.1400      0.1400      0.1400    
       0.1400      0.1400      0.1400      0.1400      0.1400      0.1400      0.2000      0.2000      0.2000      0.2000    
       0.1400      0.1400       0.000       0.000       0.000       0.000       0.000       0.000       0.000    
  29    0.000       0.000       0.000       0.000       0.000       0.000       0.000       0.000       0.000       0.000    
        0.000       0.000       0.000       0.000       0.000       0.000       0.000       0.000       0.000       0.000    
        0.000      0.1300      0.1300      0.1300      0.1300      0.1300      0.1300      0.1300      0.1300      0.1300    
       0.1300      0.1300      0.1300      0.1300      0.1300      0.1300      0.1300      0.1400      0.1400      0.1400    
       0.1400      0.1400      0.1400      0.1400      0.1400      0.1400      0.1400      0.1400      0.1400      0.1400    
       0.2000      0.2000      0.1400      0.1400      0.1400      0.1400      0.1400      0.1400      0.1400      0.1400    
       0.1400      0.1400      0.1400      0.1400      0.1400      0.1400      0.2000      0.2000      0.2000      0.2000    
       0.1400      0.1400       0.000       0.000       0.000       0.000       0.000       0.000       0.000    
  30    0.000       0.000       0.000       0.000       0.000       0.000       0.000       0.000       0.000       0.000    
        0.000       0.000       0.000       0.000       0.000       0.000       0.000       0.000       0.000      0.1300    
       0.1300      0.1300      0.1300      0.1300      0.1300      0.1300      0.1300      0.1300      0.1300      0.1300    
       0.1300      0.1300      0.1300      0.1300      0.1300      0.1300      0.1300      0.1400      0.1400      0.1400    
       0.1400      0.1400      0.1400      0.1400      0.1400      0.1400      0.1400      0.1400      0.1400      0.1400    
       0.2000      0.2000      0.1400      0.1400      0.1400      0.1400      0.1400      0.1400      0.1400      0.1400    
       0.1400      0.1400      0.1400      0.1400      0.1400      0.1400      0.2000      0.2000      0.2000      0.2000    
       0.1400      0.1400       0.000       0.000       0.000       0.000       0.000       0.000       0.000    
  31    0.000       0.000       0.000       0.000       0.000       0.000       0.000       0.000       0.000       0.000    
        0.000       0.000       0.000       0.000       0.000       0.000       0.000       0.000      0.1300      0.1300    
       0.1300      0.1300      0.1300      0.1300      0.1300      0.1300      0.1300      0.1300      0.1300      0.1300    
       0.1300      0.1300      0.1300      0.1300      0.1300      0.1300      0.1400      0.1400      0.1400      0.1400    
       0.1400      0.1400      0.1400      0.2000      0.1400      0.1400      0.1400      0.1400      0.1400      0.1400    
       0.2000      0.2000      0.1400      0.1400      0.1400      0.1400      0.1400      0.1400      0.1400      0.1400    
       0.1400      0.1400      0.1400      0.1400      0.1400      0.1400      0.2000      0.2000      0.2000      0.2000    
       0.1400      0.1400       0.000       0.000       0.000       0.000       0.000       0.000       0.000    
  32    0.000       0.000       0.000       0.000       0.000       0.000       0.000       0.000       0.000       0.000    
        0.000       0.000       0.000       0.000       0.000       0.000      0.1300      0.1300      0.1300      0.1300    
       0.1300      0.1300      0.1300      0.1300      0.1300      0.1300      0.1300      0.1300      0.1300      0.1300    
       0.1300      0.1300      0.1300      0.1300      0.1300      0.1300      0.1400      0.1400      0.2000      0.2000    
       0.2000      0.2000      0.2000      0.2000      0.1400      0.1400      0.1400      0.1400      0.1400      0.1400    
       0.2000      0.2000      0.2000      0.1400      0.1400      0.1400      0.1400      0.1400      0.1400      0.1400    
       0.1400      0.1400      0.1400      0.1400      0.1400      0.1400      0.1400      0.2000      0.2000      0.2000    
       0.2000      0.1400       0.000       0.000       0.000       0.000       0.000       0.000       0.000    
  33    0.000       0.000       0.000       0.000       0.000       0.000       0.000       0.000       0.000       0.000    
        0.000       0.000       0.000       0.000       0.000      0.1300      0.1300      0.1300      0.1300      0.1300    
       0.1300      0.1300      0.1300      0.1300      0.1300      0.1300      0.1300      0.1300      0.1300      0.1300    
       0.1300      0.1300      0.1300      0.1300      0.1400      0.1400      0.1400      0.2000      0.2000      0.2000    
       0.2000      0.2000      0.2000      0.2000      0.2000      0.1400      0.1400      0.1400      0.1400      0.1400    
       0.2000      0.2000      0.2000      0.2000      0.2000      0.2000      0.1400      0.1400      0.1400      0.1400    
       0.1400      0.1400      0.1400      0.1400      0.1400      0.1400      0.1400      0.2000      0.2000      0.2000    
       0.2000      0.1400      0.1400       0.000       0.000       0.000       0.000       0.000       0.000    
  34    0.000       0.000       0.000       0.000       0.000       0.000       0.000       0.000       0.000       0.000    
        0.000       0.000       0.000       0.000      0.1300      0.1300      0.1300      0.1300      0.1300      0.1300    
       0.1300      0.1300      0.1300      0.1300      0.1300      0.1300      0.1300      0.2000      0.1300      0.1300    
       0.1300      0.1300      0.1300      0.1300      0.1400      0.1400      0.2000      0.2000      0.2000      0.2000    
       0.2000      0.2000      0.2000      0.2000      0.2000      0.2000      0.2000      0.2000      0.2000      0.2000    
       0.2000      0.2000      0.2000      0.2000      0.2000      0.2000      0.1400      0.1400      0.1400      0.1400    
       0.1400      0.1400      0.1400      0.1400      0.1400      0.1400      0.1400      0.2000      0.2000      0.2000    
       0.1400      0.1300      0.1300       0.000       0.000       0.000       0.000       0.000       0.000    
  35    0.000       0.000       0.000       0.000       0.000       0.000       0.000       0.000       0.000       0.000    
        0.000       0.000       0.000      0.1300      0.1300      0.1300      0.1300      0.1300      0.1300      0.1300    
       0.1300      0.1300      0.1300      0.1300      0.2000      0.2000      0.2000      0.2000      0.2000      0.2000    
       0.1300      0.1300      0.2000      0.2000      0.2000      0.2000      0.2000      0.2000      0.2000      0.2000    
       0.2000      0.2000      0.2000      0.2000      0.2000      0.2000      0.2000      0.2000      0.2000      0.2000    
       0.2000      0.2000      0.2000      0.2000      0.2000      0.2000      0.1400      0.1400      0.1400      0.1400    
       0.1400      0.1400      0.1400      0.1400      0.1400      0.1400      0.1400      0.2000      0.2000      0.1400    
       0.1400      0.1300      0.1300      0.1300       0.000       0.000       0.000       0.000       0.000    
  36    0.000       0.000       0.000       0.000       0.000       0.000       0.000       0.000       0.000       0.000    
        0.000       0.000       0.000      0.1300      0.1300      0.1300      0.1300      0.1300      0.1300      0.1300    
       0.1300      0.1300      0.1300      0.1300      0.2000      0.2000      0.2000      0.2000      0.2000      0.2000    
       0.2000      0.2000      0.2000      0.2000      0.2000      0.2000      0.2000      0.2000      0.2000      0.2000    
       0.2000      0.2000      0.2000      0.2000      0.2000      0.2000      0.2000      0.2000      0.2000      0.2000    
       0.2000      0.2000      0.2000      0.2000      0.2000      0.2000      0.2000      0.2000      0.2000      0.1400    
       0.1400      0.1400      0.2000      0.2000      0.1400      0.1400      0.1400      0.2000      0.2000      0.1400    
       0.1400      0.1400      0.1300      0.1300      0.1300       0.000       0.000       0.000       0.000    
  37    0.000       0.000       0.000       0.000       0.000       0.000       0.000       0.000       0.000       0.000    
        0.000       0.000      0.1300      0.1300      0.1300      0.1300      0.1300      0.1300      0.1300      0.1300    
       0.1300      0.1300      0.1300      0.2000      0.2000      0.2000      0.2000      0.2000      0.2000      0.2000    
       0.2000      0.2000      0.2000      0.2000      0.2000      0.2000      0.2000      0.2000      0.1400      0.1400    
       0.1400      0.1400      0.2000      0.2000      0.2000      0.2000      0.2000      0.2000      0.2000      0.2000    
       0.2000      0.2000      0.2000      0.2000      0.2000      0.2000      0.2000      0.2000      0.2000      0.2000    
       0.2000      0.2000      0.2000      0.2000      0.2000      0.2000      0.2000      0.2000      0.2000      0.2000    
       0.1400      0.1400      0.1300      0.1300      0.1300       0.000       0.000       0.000       0.000    
  38    0.000       0.000       0.000       0.000       0.000       0.000       0.000       0.000       0.000       0.000    
       0.1300      0.1300      0.1300      0.1300      0.1300      0.1300      0.1300      0.1300      0.2000      0.2000    
       0.2000      0.2000      0.2000      0.2000      0.2000      0.2000      0.2000      0.2000      0.2000      0.2000    
       0.2000      0.2000      0.2000      0.2000      0.2000      0.2000      0.2000      0.2000      0.1400      0.1400    
       0.1400      0.1400      0.2000      0.2000      0.2000      0.2000      0.1400      0.2000      0.2000      0.2000    
       0.2000      0.2000      0.2000      0.2000      0.2000      0.2000      0.2000      0.2000      0.2000      0.2000    
       0.2000      0.2000      0.2000      0.2000      0.2000      0.2000      0.2000      0.2000      0.2000      0.2000    
       0.2000      0.1400      0.1300      0.1300      0.1300      0.1300       0.000       0.000       0.000    
  39    0.000       0.000       0.000       0.000       0.000       0.000       0.000      0.1300      0.1300      0.1300    
       0.1300      0.1300      0.1300      0.1300      0.2000      0.2000      0.2000      0.2000      0.2000      0.2000    
       0.2000      0.2000      0.2000      0.1400      0.1400      0.1400      0.1400      0.1400      0.2000      0.2000    
       0.2000      0.2000      0.2000      0.2000      0.2000      0.2000      0.2000      0.2000      0.1400      0.1400    
       0.1400      0.1400      0.1400      0.2000      0.2000      0.1400      0.1400      0.1400      0.2000      0.2000    
       0.2000      0.2000      0.2000      0.2000      0.2000      0.2000      0.2000      0.2000      0.2000      0.2000    
       0.2000      0.2000      0.2000      0.2000      0.2000      0.2000      0.2000      0.2000      0.2000      0.2000    
       0.2000      0.2000      0.2000      0.1300      0.1300      0.2000       0.000       0.000       0.000    
  40    0.000       0.000       0.000       0.000       0.000       0.000      0.1300      0.1300      0.1300      0.1300    
       0.1300      0.1300      0.2000      0.2000      0.2000      0.2000      0.2000      0.2000      0.1300      0.1300    
       0.1300      0.1300      0.1400      0.1400      0.1400      0.1400      0.1400      0.1400      0.2000      0.2000    
       0.2000      0.2000      0.2000      0.2000      0.2000      0.2000      0.2000      0.2000      0.1400      0.1400    
       0.1400      0.1400      0.1400      0.2000      0.2000      0.1400      0.1400      0.1400      0.1400      0.2000    
       0.2000      0.2000      0.2000      0.2000      0.2000      0.2000      0.1400      0.1400      0.2000      0.2000    
       0.2000      0.2000      0.2000      0.2000      0.2000      0.2000      0.2000      0.2000      0.2000      0.2000    
       0.2000      0.2000      0.2000      0.2000      0.2000      0.2000       0.000       0.000       0.000    
  41    0.000       0.000       0.000       0.000       0.000      0.1300      0.1300      0.1300      0.1300      0.1300    
       0.1300      0.1300      0.2000      0.2000      0.1300      0.1300      0.1300      0.1300      0.1300      0.1300    
       0.1300      0.1400      0.1400      0.1400      0.1400      0.1400      0.1400      0.1400      0.2000      0.2000    
       0.2000      0.2000      0.2000      0.2000      0.2000      0.2000      0.2000      0.2000      0.1400      0.1400    
       0.1400      0.1400      0.1400      0.2000      0.2000      0.2000      0.1400      0.1400      0.1400      0.2000    
       0.2000      0.2000      0.1300      0.1300      0.1300      0.1300      0.1400      0.1400      0.1400      0.2000    
       0.2000      0.2000      0.1400      0.2000      0.2000      0.2000      0.1400      0.1400      0.2000      0.2000    
       0.2000      0.2000      0.2000      0.2000      0.2000       0.000       0.000       0.000       0.000    
  42    0.000       0.000       0.000       0.000       0.000      0.1300      0.1300      0.1300      0.1300      0.1300    
       0.1300      0.1300      0.1300      0.1300      0.1300      0.1300      0.1300      0.1300      0.1300      0.1400    
       0.1400      0.1400      0.1400      0.2000      0.2000      0.2000      0.2000      0.2000      0.2000      0.2000    
       0.2000      0.2000      0.2000      0.2000      0.2000      0.2000      0.2000      0.2000      0.1400      0.1400    
       0.1400      0.1400      0.1400      0.2000      0.2000      0.2000      0.1400      0.1400      0.1400      0.1400    
       0.1300      0.1300      0.1300      0.1300      0.1300      0.1300      0.1300      0.1400      0.1400      0.2000    
       0.2000      0.2000      0.1400      0.1400      0.1400      0.1400      0.1400      0.1400      0.1400      0.2000    
       0.2000      0.2000      0.2000      0.2000      0.2000       0.000       0.000       0.000       0.000    
  43    0.000       0.000       0.000       0.000       0.000      0.1300      0.1300      0.1300      0.1300      0.1300    
       0.1300      0.1300      0.1300      0.1300      0.1300      0.1300      0.1300      0.1300      0.1300      0.1400    
       0.1400      0.1400      0.2000      0.2000      0.2000      0.2000      0.2000      0.2000      0.2000      0.2000    
       0.2000      0.2000      0.2000      0.2000      0.2000      0.2000      0.2000      0.1400      0.1400      0.1400    
       0.1400      0.1400      0.1400      0.2000      0.2000      0.2000      0.1400      0.1400      0.1400      0.1400    
       0.1300      0.1300      0.1300      0.1300      0.1300      0.1300      0.1300      0.1400      0.1400      0.2000    
       0.2000      0.1400      0.1400      0.1400      0.1400      0.1400      0.1400      0.1400      0.1400      0.2000    
       0.2000      0.2000      0.2000      0.2000      0.2000       0.000       0.000       0.000       0.000    
  44    0.000       0.000       0.000       0.000       0.000      0.1300      0.1300      0.1300      0.1300      0.1300    
       0.1300      0.1300      0.1300      0.1300      0.1300      0.1400      0.1400      0.1400      0.1400      0.2000    
       0.2000      0.2000      0.2000      0.2000      0.2000      0.2000      0.2000      0.2000      0.2000      0.2000    
       0.2000      0.2000      0.2000      0.2000      0.2000      0.2000      0.2000      0.1400      0.1400      0.1400    
       0.1400      0.1400      0.1300      0.1300      0.2000      0.2000      0.1400      0.1400      0.1400      0.1400    
       0.1400      0.1300      0.1300      0.1300      0.1300      0.1300      0.1300      0.1400      0.1400      0.2000    
       0.2000      0.1400      0.1400      0.1400      0.1400      0.1400      0.1400      0.1400      0.1400      0.2000    
       0.2000      0.2000      0.2000      0.2000      0.2000       0.000       0.000       0.000       0.000    
  45    0.000       0.000       0.000      0.1300      0.1300      0.1300      0.1300      0.1300      0.1300      0.1300    
       0.1300      0.1300      0.1300      0.1300      0.2000      0.2000      0.2000      0.2000      0.2000      0.2000    
       0.2000      0.2000      0.2000      0.2000      0.2000      0.2000      0.2000      0.2000      0.2000      0.2000    
       0.2000      0.2000      0.2000      0.2000      0.2000      0.2000      0.2000      0.2000      0.1300      0.1300    
       0.1300      0.1300      0.1300      0.1300      0.2000      0.2000      0.1400      0.1400      0.1300      0.1300    
       0.1300      0.1300      0.1300      0.1300      0.1300      0.1300      0.1300      0.1400      0.1400      0.2000    
       0.2000      0.1400      0.1400      0.1400      0.1400      0.1400      0.1400      0.1400      0.1400      0.2000    
       0.2000      0.2000      0.2000      0.1400      0.1300       0.000       0.000       0.000       0.000    
  46    0.000       0.000       0.000      0.1300      0.1300      0.1300      0.1300      0.1300      0.1300      0.1300    
       0.1300      0.2000      0.2000      0.2000      0.2000      0.2000      0.2000      0.2000      0.2000      0.2000    
       0.2000      0.2000      0.2000      0.2000      0.2000      0.2000      0.2000      0.2000      0.2000      0.2000    
       0.2000      0.2000      0.2000      0.2000      0.2000      0.2000      0.2000      0.1400      0.1300      0.1300    
       0.1300      0.1300      0.1300      0.1300      0.2000      0.2000      0.1400      0.1400      0.1300      0.1300    
       0.1300      0.1300      0.1300      0.1300      0.1300      0.1300      0.1300      0.1400      0.1400      0.2000    
       0.2000      0.1400      0.1400      0.1400      0.1400      0.1400      0.1400      0.1400      0.1400      0.2000    
       0.2000      0.2000      0.2000      0.1400      0.1400       0.000       0.000       0.000       0.000    
  47    0.000       0.000       0.000      0.1300      0.1300      0.1300      0.1300      0.1300      0.1300      0.1300    
       0.1300      0.2000      0.2000      0.2000      0.2000      0.2000      0.2000      0.2000      0.2000      0.2000    
       0.2000      0.2000      0.2000      0.2000      0.2000      0.2000      0.2000      0.2000      0.2000      0.1400    
       0.2000      0.2000      0.2000      0.2000      0.2000      0.2000      0.2000      0.1400      0.1300      0.1300    
       0.1300      0.1300      0.1300      0.1300      0.2000      0.2000      0.1400      0.1400      0.1300      0.1300    
       0.1300      0.1300      0.1300      0.1300      0.1300      0.1300      0.1300      0.1300      0.1400      0.1400    
       0.2000      0.1400      0.1400      0.1400      0.1400      0.1400      0.1400      0.1400      0.1400      0.2000    
       0.2000      0.2000      0.2000      0.1400      0.1400       0.000       0.000       0.000       0.000    
  48    0.000       0.000       0.000      0.1300      0.1300      0.1300      0.1300      0.1300      0.1300      0.1300    
       0.1300      0.2000      0.2000      0.2000      0.2000      0.2000      0.2000      0.2000      0.2000      0.2000    
       0.2000      0.2000      0.2000      0.2000      0.1400      0.1400      0.1400      0.1400      0.1400      0.1400    
       0.2000      0.2000      0.2000      0.2000      0.2000      0.2000      0.2000      0.2000      0.1300      0.1300    
       0.1300      0.1300      0.1300      0.1300      0.2000      0.2000      0.1400      0.1400      0.1400      0.1300    
       0.1300      0.1300      0.1300      0.1300      0.1300      0.1300      0.1300      0.1300      0.1400      0.1400    
       0.2000      0.2000      0.1400      0.1400      0.1400      0.1400      0.1400      0.1400      0.1400      0.2000    
       0.2000      0.2000      0.2000      0.1400      0.1400      0.1400       0.000       0.000       0.000    
  49    0.000       0.000       0.000      0.1300      0.1300      0.1300      0.1300      0.1300      0.1300      0.1300    
       0.2000      0.2000      0.2000      0.2000      0.2000      0.2000      0.2000      0.2000      0.2000      0.1400    
       0.1400      0.1400      0.1400      0.1400      0.1400      0.1400      0.1400      0.1400      0.1400      0.1400    
       0.2000      0.2000      0.2000      0.2000      0.2000      0.2000      0.2000      0.2000      0.2000      0.1300    
       0.1300      0.1300      0.1300      0.1300      0.1300      0.2000      0.2000      0.2000      0.1400      0.1300    
       0.1300      0.1300      0.1300      0.1300      0.1300      0.1300      0.1300      0.1300      0.1400      0.1400    
       0.2000      0.2000      0.1400      0.1400      0.1400      0.1400      0.1400      0.1400      0.1400      0.2000    
       0.2000      0.2000      0.2000      0.1400      0.1400      0.1400       0.000       0.000       0.000    
  50    0.000       0.000       0.000      0.1300      0.1300      0.1300      0.1300      0.1300      0.1300      0.1300    
       0.2000      0.2000      0.2000      0.2000      0.2000      0.1400      0.1400      0.1400      0.1400      0.1400    
       0.1400      0.1400      0.1400      0.1400      0.1400      0.1400      0.1400      0.1400      0.1400      0.1400    
       0.1400      0.2000      0.2000      0.2000      0.2000      0.2000      0.2000      0.2000      0.2000      0.2000    
       0.1300      0.1300      0.1300      0.1300      0.1300      0.1300      0.2000      0.2000      0.2000      0.1300    
       0.1300      0.1300      0.1300      0.1300      0.1300      0.1300      0.1300      0.1300      0.1400      0.1400    
       0.2000      0.2000      0.1400      0.1400      0.1400      0.1400      0.1400      0.1400      0.1400      0.2000    
       0.2000      0.2000      0.2000      0.2000      0.1400      0.1400       0.000       0.000       0.000    
  51    0.000       0.000       0.000      0.1300      0.1300      0.1300      0.1300      0.1300      0.1300      0.2000    
       0.2000      0.2000      0.2000      0.2000      0.2000      0.1300      0.1300      0.1400      0.1400      0.1400    
       0.1400      0.1400      0.1400      0.1400      0.1400      0.1400      0.1400      0.1400      0.1400      0.1400    
       0.1400      0.2000      0.2000      0.2000      0.2000      0.2000      0.2000      0.2000      0.2000      0.2000    
       0.1300      0.1300      0.1300      0.1300      0.1300      0.1300      0.2000      0.2000      0.2000      0.1300    
       0.1300      0.1300      0.1300      0.1300      0.1300      0.1300      0.1300      0.1300      0.1400      0.1400    
       0.2000      0.2000      0.2000      0.1400      0.1400      0.1400      0.1400      0.1400      0.1400      0.2000    
       0.2000      0.2000      0.2000      0.2000      0.1400      0.1400       0.000       0.000       0.000    
  52    0.000       0.000      0.1300      0.1300      0.1300      0.1300      0.1300      0.1300      0.1300      0.2000    
       0.2000      0.2000      0.2000      0.1300      0.1300      0.1300      0.1300      0.1300      0.1300      0.1400    
       0.1400      0.1400      0.1400      0.1400      0.1400      0.1400      0.1400      0.1400      0.1400      0.1400    
       0.1400      0.2000      0.2000      0.2000      0.2000      0.2000      0.2000      0.2000      0.2000      0.2000    
       0.1300      0.1300      0.1300      0.1300      0.1300      0.1300      0.1300      0.2000      0.2000      0.1300    
       0.1300      0.1300      0.1300      0.1300      0.1300      0.1300      0.1300      0.1300      0.1300      0.1400    
       0.2000      0.2000      0.2000      0.1400      0.1400      0.1400      0.1400      0.1400      0.1400      0.2000    
       0.2000      0.2000      0.2000      0.2000      0.1400      0.1400       0.000       0.000       0.000    
  53    0.000       0.000      0.1300      0.1300      0.1300      0.1300      0.1300      0.1300      0.2000      0.2000    
       0.2000      0.2000      0.1300      0.1300      0.1300      0.1300      0.1300      0.1300      0.1300      0.1300    
       0.1300      0.1400      0.1400      0.1400      0.1400      0.1400      0.1400      0.1400      0.1400      0.1400    
       0.1400      0.2000      0.2000      0.2000      0.2000      0.2000      0.2000      0.2000      0.2000      0.1300    
       0.1300      0.1300      0.1300      0.1300      0.1300      0.1300      0.1300      0.2000      0.2000      0.2000    
       0.1300      0.1300      0.1300      0.1300      0.1300      0.1300      0.1300      0.1300      0.1300      0.1400    
       0.2000      0.2000      0.2000      0.1400      0.1400      0.1400      0.1400      0.1400      0.1400      0.2000    
       0.2000      0.2000      0.2000      0.2000      0.1400      0.1400      0.1400       0.000       0.000    
  54    0.000       0.000      0.1300      0.1300      0.1300      0.1300      0.1300      0.1300      0.2000      0.2000    
       0.2000      0.1300      0.1300      0.1300      0.1300      0.1300      0.1300      0.1300      0.1300      0.1300    
       0.1300      0.1400      0.1400      0.1400      0.1400      0.1400      0.1400      0.1400      0.1400      0.1400    
       0.1400      0.2000      0.2000      0.2000      0.2000      0.2000      0.2000      0.2000      0.2000      0.1400    
       0.1300      0.1300      0.1300      0.1300      0.1300      0.1300      0.1300      0.2000      0.2000      0.2000    
       0.1300      0.1300      0.1300      0.1300      0.1300      0.1300      0.1300      0.1300      0.1300      0.1400    
       0.2000      0.2000      0.2000      0.1400      0.1400      0.1400      0.1400      0.1400      0.1400      0.2000    
       0.2000      0.2000      0.2000      0.2000      0.1400      0.1400      0.1400       0.000       0.000    
  55    0.000      0.1300      0.1300      0.1300      0.1300      0.1300      0.1300      0.2000      0.2000      0.2000    
       0.2000      0.1300      0.1300      0.1300      0.1300      0.1300      0.1300      0.1300      0.1300      0.1300    
       0.1300      0.1300      0.1400      0.1400      0.1400      0.1400      0.1400      0.1400      0.1400      0.1400    
       0.1400      0.1400      0.2000      0.2000      0.2000      0.2000      0.2000      0.2000      0.2000      0.1400    
       0.1300      0.1300      0.1300      0.1300      0.1300      0.1300      0.1300      0.2000      0.2000      0.2000    
       0.1300      0.1300      0.1300      0.1300      0.1300      0.1300      0.1300      0.1300      0.1300      0.1400    
       0.2000      0.2000      0.2000      0.1400      0.1400      0.1400      0.1400      0.1400      0.1400      0.2000    
       0.2000      0.2000      0.2000      0.2000      0.2000      0.1400      0.1400       0.000       0.000    
  56    0.000      0.1300      0.1300      0.1300      0.1300      0.1300      0.2000      0.2000      0.2000      0.2000    
       0.2000      0.1300      0.1300      0.1300      0.1300      0.1300      0.1300      0.1300      0.1300      0.1300    
       0.1300      0.1300      0.1300      0.1400      0.1400      0.1400      0.1400      0.1400      0.1400      0.1400    
       0.1400      0.1400      0.2000      0.2000      0.2000      0.2000      0.2000      0.2000      0.2000      0.1400    
       0.1300      0.1300      0.1300      0.1300      0.1300      0.1300      0.1300      0.2000      0.2000      0.2000    
       0.1300      0.1300      0.1300      0.1300      0.1300      0.1300      0.1300      0.1300      0.1300      0.1400    
       0.2000      0.2000      0.2000      0.1400      0.1400      0.1300      0.1300      0.1300      0.1400      0.1400    
       0.2000      0.2000      0.2000      0.2000      0.2000      0.1400      0.1400       0.000       0.000    
  57   0.1300      0.1300      0.1300      0.1300      0.1300      0.2000      0.2000      0.2000      0.2000      0.1300    
       0.1300      0.1300      0.1300      0.1300      0.1300      0.1300      0.1300      0.1300      0.1300      0.1300    
       0.1300      0.1300      0.1300      0.1300      0.1300      0.1300      0.1400      0.1400      0.1400      0.1400    
       0.1400      0.1400      0.2000      0.2000      0.2000      0.2000      0.2000      0.2000      0.1400      0.1400    
       0.1300      0.1300      0.1300      0.1300      0.1300      0.1300      0.1300      0.2000      0.2000      0.2000    
       0.1300      0.1300      0.1300      0.1300      0.1300      0.1300      0.1300      0.1300      0.1300      0.1300    
       0.1400      0.2000      0.2000      0.1400      0.1400      0.1300      0.1300      0.1300      0.1400      0.1400    
       0.2000      0.2000      0.1400      0.1400      0.1400      0.1400      0.1400       0.000       0.000    
  58   0.1300      0.1300      0.1300      0.1300      0.1300      0.2000      0.1300      0.1300      0.1300      0.1300    
       0.1300      0.1300      0.1300      0.1300      0.1300      0.1300      0.1300      0.1300      0.1300      0.1300    
       0.1300      0.1300      0.1300      0.1300      0.1300      0.1300      0.1300      0.1400      0.1400      0.1400    
       0.1400      0.1400      0.2000      0.2000      0.2000      0.2000      0.2000      0.2000      0.1400      0.1400    
       0.1300      0.1300      0.1300      0.1300      0.1300      0.1300      0.1300      0.1300      0.2000      0.2000    
       0.2000      0.1400      0.1300      0.1300      0.1300      0.1300      0.1300      0.1300      0.1300      0.1300    
       0.1400      0.2000      0.1400      0.1400      0.1400      0.1300      0.1300      0.1300      0.1400      0.2000    
       0.2000      0.2000      0.1400      0.1400      0.1400      0.1400      0.1400       0.000       0.000    
  59   0.1300      0.1300      0.1300      0.1300      0.1300      0.1300      0.1300      0.1300      0.1300      0.1300    
       0.1300      0.1300      0.1300      0.1300      0.1300      0.1300      0.1300      0.1300      0.1300      0.1300    
       0.1300      0.1300      0.1300      0.1300      0.1300      0.1300      0.1300      0.1300      0.1400      0.1400    
       0.1400      0.1400      0.2000      0.2000      0.2000      0.2000      0.2000      0.2000      0.2000      0.1400    
       0.1300      0.1300      0.1300      0.1300      0.1300      0.1300      0.1300      0.1300      0.2000      0.1300    
       0.2000      0.1400      0.1300      0.1300      0.1300      0.1300      0.1300      0.1300      0.1300      0.1300    
       0.1400      0.1400      0.1400      0.1300      0.1300      0.1300      0.1300      0.1300      0.1400      0.2000    
       0.2000      0.2000      0.1400      0.1400      0.1400      0.1400      0.1400      0.1400       0.000    
  60    0.000      0.1300      0.1300      0.1300      0.1300      0.1300      0.1300      0.1300      0.1300      0.1300    
       0.1300      0.1300      0.1300       0.000       0.000       0.000      0.1300      0.1300      0.1300      0.1300    
       0.1300      0.1300      0.1300      0.1300      0.1300      0.1300      0.1300      0.1300      0.1300      0.1400    
       0.1400      0.1400      0.1400      0.2000      0.2000      0.2000      0.2000      0.2000      0.2000      0.1400    
       0.1300      0.1300      0.1300      0.1300      0.1300      0.1300      0.1300      0.1300      0.1300      0.1300    
       0.2000      0.1400      0.1300      0.1300      0.1300      0.1300      0.1300      0.1300      0.1300      0.1400    
       0.1400      0.1400      0.1300      0.1300      0.1300      0.1300      0.1300      0.1300      0.1400      0.2000    
       0.2000      0.1400      0.1400      0.1400      0.1400      0.1400      0.1400      0.1400      0.1400    
  61    0.000       0.000      0.1300      0.1300      0.1300      0.1300      0.1300      0.1300      0.1300      0.1300    
       0.1300       0.000       0.000       0.000       0.000       0.000       0.000      0.1300      0.1300      0.1300    
       0.1300      0.1300      0.1300      0.1300      0.1300      0.1300      0.1300      0.1300      0.1300      0.1300    
       0.1400      0.1400      0.1400      0.2000      0.2000      0.2000      0.2000      0.2000      0.2000      0.1400    
       0.1300      0.1300      0.1300      0.1300      0.1300      0.1300      0.1300      0.1300      0.1300      0.1300    
       0.2000      0.2000      0.1300      0.1300      0.1300      0.1300      0.1300      0.1300      0.1300      0.1300    
       0.1300      0.1300      0.1300      0.1300      0.1300      0.1300      0.1300      0.1300      0.1400      0.2000    
       0.2000      0.1400      0.1400      0.1400      0.1400      0.1400      0.1400      0.1400      0.1400    
  62    0.000       0.000       0.000      0.1300       0.000       0.000       0.000       0.000       0.000       0.000    
        0.000       0.000       0.000       0.000       0.000       0.000       0.000       0.000       0.000      0.1300    
       0.1300      0.1300      0.1300      0.1300      0.1300      0.1300      0.1300      0.1300      0.1300      0.1300    
       0.1400      0.1400      0.1400      0.2000      0.2000      0.2000      0.2000      0.2000      0.2000      0.1400    
       0.1300      0.1300      0.1300      0.1300      0.1300      0.1300      0.1300      0.1300      0.1300      0.1300    
       0.1300      0.1300      0.2000      0.1300      0.1300      0.1300      0.1300      0.1300      0.1300      0.1300    
       0.1300      0.1300      0.1300      0.1300      0.1300      0.1300      0.1300      0.1300      0.1400      0.2000    
       0.1400      0.1400      0.1400      0.1400      0.1400      0.1400      0.1400      0.1300      0.1300    
  63    0.000       0.000       0.000       0.000       0.000       0.000       0.000       0.000       0.000       0.000    
        0.000       0.000       0.000       0.000       0.000       0.000       0.000       0.000       0.000      0.1300    
       0.1300      0.1300      0.1300      0.1300      0.1300      0.1300      0.1300      0.1300      0.1300      0.1300    
       0.1300      0.1400      0.1400      0.2000      0.2000      0.2000      0.2000      0.2000      0.2000      0.1400    
       0.1400      0.1300      0.1300      0.1300      0.1300      0.1300      0.1300      0.1300      0.1300      0.1300    
       0.1300      0.1300      0.2000      0.2000      0.1300      0.1300      0.1300      0.1300      0.1300      0.1300    
       0.1300      0.1300      0.1300      0.1300      0.1300      0.1300      0.1300      0.1300      0.1400      0.1400    
       0.1400      0.1400      0.1400      0.1400      0.1400      0.1400      0.1400      0.1300      0.1300    
  64    0.000       0.000       0.000       0.000       0.000       0.000       0.000       0.000       0.000       0.000    
        0.000       0.000       0.000       0.000       0.000       0.000       0.000       0.000       0.000       0.000    
        0.000       0.000       0.000       0.000      0.1300      0.1300      0.1300      0.1300      0.1300      0.1300    
       0.1300      0.1300      0.1400      0.1400      0.2000      0.2000      0.2000      0.2000      0.2000      0.2000    
       0.1300      0.1300      0.1300      0.1300      0.1300      0.1300      0.1300      0.1300      0.1300      0.1300    
       0.1300      0.1300      0.1400      0.2000      0.1300      0.1300      0.1300      0.1300      0.1300      0.1300    
       0.1300      0.1300      0.1300      0.1300      0.1300      0.1300      0.1300      0.1400      0.1400      0.1400    
       0.1400      0.1400      0.1400      0.1400      0.1400      0.1400      0.1300      0.1300      0.1300    
  65    0.000       0.000       0.000       0.000       0.000       0.000       0.000       0.000       0.000       0.000    
        0.000       0.000       0.000       0.000       0.000       0.000       0.000       0.000       0.000       0.000    
        0.000       0.000       0.000       0.000       0.000       0.000       0.000       0.000       0.000       0.000    
        0.000       0.000       0.000      0.1400      0.2000      0.2000      0.2000      0.2000      0.2000      0.2000    
       0.1300      0.1300      0.1300      0.1300      0.1300       0.000       0.000       0.000       0.000      0.1300    
       0.1300      0.1300      0.1400      0.1400      0.1300      0.1300      0.1300      0.1300      0.1300      0.1300    
       0.1300      0.1300      0.1300      0.1300      0.1300      0.1300      0.1300      0.1400      0.1400      0.1400    
       0.1400      0.1400      0.1400      0.1400      0.1400      0.1400      0.1400      0.1300      0.1300    
  66    0.000       0.000       0.000       0.000       0.000       0.000       0.000       0.000       0.000       0.000    
        0.000       0.000       0.000       0.000       0.000       0.000       0.000       0.000       0.000       0.000    
        0.000       0.000       0.000       0.000       0.000       0.000       0.000       0.000       0.000       0.000    
        0.000       0.000       0.000       0.000       0.000      0.1400      0.1400       0.000       0.000       0.000    
        0.000       0.000       0.000       0.000       0.000       0.000       0.000       0.000       0.000       0.000    
       0.1300      0.1300      0.1400      0.1400      0.1400      0.1300      0.1300      0.1300      0.1300      0.1300    
       0.1300      0.1300      0.1300      0.1300      0.1300      0.1300      0.1300      0.1300      0.1400      0.1400    
       0.1400      0.1400      0.1400      0.1400      0.1400      0.1400      0.1400      0.1300      0.1300    
  67    0.000       0.000       0.000       0.000       0.000       0.000       0.000       0.000       0.000       0.000    
        0.000       0.000       0.000       0.000       0.000       0.000       0.000       0.000       0.000       0.000    
        0.000       0.000       0.000       0.000       0.000       0.000       0.000       0.000       0.000       0.000    
        0.000       0.000       0.000       0.000       0.000       0.000       0.000       0.000       0.000       0.000    
        0.000       0.000       0.000       0.000       0.000       0.000       0.000       0.000       0.000       0.000    
        0.000       0.000      0.1300      0.1400      0.1300      0.1300      0.1300      0.1300      0.1300      0.1300    
       0.1300      0.1300      0.1300      0.1300      0.1300      0.1300      0.1300      0.1300      0.1400      0.1400    
       0.1400       0.000       0.000       0.000       0.000       0.000       0.000       0.000       0.000    
  68    0.000       0.000       0.000       0.000       0.000       0.000       0.000       0.000       0.000       0.000    
        0.000       0.000       0.000       0.000       0.000       0.000       0.000       0.000       0.000       0.000    
        0.000       0.000       0.000       0.000       0.000       0.000       0.000       0.000       0.000       0.000    
        0.000       0.000       0.000       0.000       0.000       0.000       0.000       0.000       0.000       0.000    
        0.000       0.000       0.000       0.000       0.000       0.000       0.000       0.000       0.000       0.000    
        0.000       0.000       0.000      0.1300      0.1300      0.1300      0.1300      0.1300      0.1300      0.1300    
       0.1300      0.1300      0.1300      0.1300      0.1300      0.1300      0.1300      0.1400       0.000       0.000    
        0.000       0.000       0.000       0.000       0.000       0.000       0.000       0.000       0.000    
  69    0.000       0.000       0.000       0.000       0.000       0.000       0.000       0.000       0.000       0.000    
        0.000       0.000       0.000       0.000       0.000       0.000       0.000       0.000       0.000       0.000    
        0.000       0.000       0.000       0.000       0.000       0.000       0.000       0.000       0.000       0.000    
        0.000       0.000       0.000       0.000       0.000       0.000       0.000       0.000       0.000       0.000    
        0.000       0.000       0.000       0.000       0.000       0.000       0.000       0.000       0.000       0.000    
        0.000       0.000       0.000       0.000       0.000       0.000       0.000       0.000       0.000       0.000    
       0.1300      0.1300      0.1300      0.1300      0.1400      0.1400      0.1400       0.000       0.000       0.000    
        0.000       0.000       0.000       0.000       0.000       0.000       0.000       0.000       0.000    
  70    0.000       0.000       0.000       0.000       0.000       0.000       0.000       0.000       0.000       0.000    
        0.000       0.000       0.000       0.000       0.000       0.000       0.000       0.000       0.000       0.000    
        0.000       0.000       0.000       0.000       0.000       0.000       0.000       0.000       0.000       0.000    
        0.000       0.000       0.000       0.000       0.000       0.000       0.000       0.000       0.000       0.000    
        0.000       0.000       0.000       0.000       0.000       0.000       0.000       0.000       0.000       0.000    
        0.000       0.000       0.000       0.000       0.000       0.000       0.000       0.000       0.000       0.000    
        0.000      0.1300      0.1300      0.1300      0.1400      0.1400       0.000       0.000       0.000       0.000    
        0.000       0.000       0.000       0.000       0.000       0.000       0.000       0.000       0.000    
  71    0.000       0.000       0.000       0.000       0.000       0.000       0.000       0.000       0.000       0.000    
        0.000       0.000       0.000       0.000       0.000       0.000       0.000       0.000       0.000       0.000    
        0.000       0.000       0.000       0.000       0.000       0.000       0.000       0.000       0.000       0.000    
        0.000       0.000       0.000       0.000       0.000       0.000       0.000       0.000       0.000       0.000    
        0.000       0.000       0.000       0.000       0.000       0.000       0.000       0.000       0.000       0.000    
        0.000       0.000       0.000       0.000       0.000       0.000       0.000       0.000       0.000       0.000    
        0.000       0.000      0.1300      0.1300       0.000       0.000       0.000       0.000       0.000       0.000    
        0.000       0.000       0.000       0.000       0.000       0.000       0.000       0.000       0.000    

UNSATURATED FLOW RESULTS WILL BE PRINTED TO SEPARATE FILES FOR SELECTED MODEL CELLS, AND TIME STEPS AS DEFINED BY OUTPUT CONTROL PACKAGE 

SELECTED MODEL CELLS ARE: 
 ROW NUMBER  COLUMN NUMBER  FORTRAN UNIT NUMBER  OUTPUT OPTION


       0             0                 68                 4



   2 GAGING STATIONS WERE SPECIFIED.
     (Lakes are identified by a negative value of the Lake Number)
     RECORDS WILL BE WRITTEN TO SEPARATE OUTPUT FILES REPRESENTED BY FOLLOWING UNIT NUMBERS:

 Stream Gages:
  GAGE #   SEGMENT   REACH   UNIT   OUTTYPE
       1      18       1      65       5
       2      19       1      66       5





 AG -- AG PACKAGE FOR NWT VERSION 1.2.0,  3/03/2020 INPUT READ FROM UNIT   20
 # AG options

 PROCESSING AG OPTIONS

 AGRICULTURAL DEMANDS WILL BE CALCULATED USING ET DEFICIT


 OPTION TO APPLY POND WATER AS IRRIGATION IS ACTIVE. POND IRRIGATION WATER WILL BE APPLIED TO         14 CELLS/RHUS.


 OPTION TO APPLY POND WATER AS IRRIGATION IS ACTIVE. POND IRRIGATION WATER WILL BE APPLIED TO         14 CELLS/RHUS.


  UNFORMATTED CELL BY CELL RATES FOR IRRIGATION PONDS WILL BE SAVED TO FILE UNIT NUMBER          0


  GROUND WATER IRRIGATION, POTENTIAL AND ACTUAL ET WILL BE SAVED TO TIMES SERIES OUTPUT FILES.


  POND WATER IRRIGATION, POTENTIAL AND ACTUAL ET WILL BE SAVED TO TIMES SERIES OUTPUT FILES.


 END PROCESSING AG OPTIONS
 # AG time series

 PROCESSING TIME SERIES

 FINISHED READING TIME SERIES
 A total number of          0 AG output time series files were activated for SURFACE WATER 
 A total number of          0 AG output time series files were activated for GROUNDWATER 
 A total number of          0 AG output time series files were activated for SURFACE WATER ET
 A total number of          0 AG output time series files were activated for GROUNDWATER ET
 A total number of          1 AG output time series files were activated for POND ET
 A total number of          1 AG output time series files were activated for POND IRRIGATION
 No wells active in the AG Package
1
                            STRESS PERIOD NO.    1, LENGTH =   1.000000    
                            -----------------------------------------------

                              NUMBER OF TIME STEPS =     1

                               MULTIPLIER FOR DELT =     1.000

                            INITIAL TIME STEP SIZE =   1.000000    



 CLASSIFICATION & COUNT OF STREAM SEGMENTS BASED ON SOURCE OF INFLOW:

                HEADWATER     DIVERSION     RECEIVES TRIBUTARY FLOW
                ---------     ---------     -----------------------
                     8              2               9



                    INPUT DATA FOR EACH STREAM SEGMENT
 ---------------------------------------------------------------------------------------------

 SEGMENT    SEG.     INFLOW   OVERLAND   STREAM    STREAM   ICALC  OUTFLOW  DIVERSION PRIORITY
    NO.    LENGTH     RATE     RUNOFF      ET       PPT.    METH.  TO SEG.  FROM SEG.    NO.

      1  5.355E+02 0.000E+00 0.000E+00 0.000E+00 0.000E+00    1        3        0        0
      2  2.809E+02 0.000E+00 0.000E+00 0.000E+00 0.000E+00    1        3        0        0
      3  1.791E+03 0.000E+00 0.000E+00 0.000E+00 0.000E+00    1       15        0        0
      4  1.277E+03 0.000E+00 0.000E+00 0.000E+00 0.000E+00    1       11        0        0
      5  1.086E+03 0.000E+00 0.000E+00 0.000E+00 0.000E+00    1        6        0        0
      6  8.691E+02 0.000E+00 0.000E+00 0.000E+00 0.000E+00    1       11        0        0
      7  3.073E+02 0.000E+00 0.000E+00 0.000E+00 0.000E+00    1        5        0        0
      8  1.907E+03 0.000E+00 0.000E+00 0.000E+00 0.000E+00    1        6        0        0
      9  8.023E+02 0.000E+00 0.000E+00 0.000E+00 0.000E+00    1        7        0        0
     10  2.413E+03 0.000E+00 0.000E+00 0.000E+00 0.000E+00    1        5        0        0
     11  7.046E+02 0.000E+00 0.000E+00 0.000E+00 0.000E+00    1       13        0        0
     12  2.746E+03 0.000E+00 0.000E+00 0.000E+00 0.000E+00    1        7        0        0
     13  7.573E+02 0.000E+00 0.000E+00 0.000E+00 0.000E+00    1       15        0        0
     14  8.023E+02 0.000E+00 0.000E+00 0.000E+00 0.000E+00    1       13        0        0
     15  4.873E+02 0.000E+00 0.000E+00 0.000E+00 0.000E+00    1       16        0        0
     16  1.350E+02 0.000E+00 0.000E+00 0.000E+00 0.000E+00    1        0        0        0
     17  1.544E+03 0.000E+00 0.000E+00 0.000E+00 0.000E+00    1       16        0        0
     18  1.086E+02 0.000E+00 0.000E+00 0.000E+00 0.000E+00    1       17       16        0
     19  1.086E+02 0.000E+00 0.000E+00 0.000E+00 0.000E+00    1       17       16        0


         STREAMBED PROPERTIES AND STREAM DIMENSIONS

 SEGMENT     WIDTH OF STREAM     DEPTH OF STREAM    STREAM ROUGHNESS
    No.     UPPER     LOWER     UPPER     LOWER     CHANNEL      BANK

     1    3.000E+00 3.000E+00                      4.000E-02
     2    3.000E+00 3.000E+00                      4.000E-02
     3    3.000E+00 3.000E+00                      4.000E-02
     4    3.000E+00 3.000E+00                      4.000E-02
     5    3.000E+00 3.000E+00                      4.000E-02
     6    3.000E+00 3.000E+00                      4.000E-02
     7    3.000E+00 3.000E+00                      4.000E-02
     8    3.000E+00 3.000E+00                      4.000E-02
     9    3.000E+00 3.000E+00                      4.000E-02
    10    3.000E+00 3.000E+00                      4.000E-02
    11    3.000E+00 3.000E+00                      4.000E-02
    12    3.000E+00 3.000E+00                      4.000E-02
    13    3.000E+00 3.000E+00                      4.000E-02
    14    3.000E+00 3.000E+00                      4.000E-02
    15    3.000E+00 3.000E+00                      4.000E-02
    16    3.000E+00 3.000E+00                      4.000E-02
    17    3.000E+00 3.000E+00                      4.000E-02
    18    3.000E+00 3.000E+00                      4.000E-02
    19    3.000E+00 3.000E+00                      4.000E-02



TABULAR INFLOWS WERE READ FOR SEGMENT     18
FROM FILE UNIT NUMBER     53

          TIMES                    INFLOWS
         0.0000000000E+00     0.0000000000E+00
         0.1000000000E+01     0.0000000000E+00
         0.2000000000E+01     0.0000000000E+00
         0.3000000000E+01     0.0000000000E+00
         0.4000000000E+01     0.0000000000E+00
         0.5000000000E+01     0.0000000000E+00
         0.6000000000E+01     0.0000000000E+00
         0.7000000000E+01     0.0000000000E+00
         0.8000000000E+01     0.0000000000E+00
         0.9000000000E+01     0.0000000000E+00
         0.1000000000E+02     0.0000000000E+00
         0.1100000000E+02     0.0000000000E+00
         0.1200000000E+02     0.0000000000E+00
         0.1300000000E+02     0.0000000000E+00
         0.1400000000E+02     0.0000000000E+00
         0.1500000000E+02     0.0000000000E+00
         0.1600000000E+02     0.0000000000E+00
         0.1700000000E+02     0.0000000000E+00
         0.1800000000E+02     0.0000000000E+00
         0.1900000000E+02     0.0000000000E+00
         0.2000000000E+02     0.0000000000E+00
         0.2100000000E+02     0.0000000000E+00
         0.2200000000E+02     0.0000000000E+00
         0.2300000000E+02     0.0000000000E+00
         0.2400000000E+02     0.0000000000E+00
         0.2500000000E+02     0.0000000000E+00
         0.2600000000E+02     0.0000000000E+00
         0.2700000000E+02     0.0000000000E+00
         0.2800000000E+02     0.0000000000E+00
         0.2900000000E+02     0.0000000000E+00
         0.3000000000E+02     0.0000000000E+00
         0.3100000000E+02     0.0000000000E+00
         0.3200000000E+02     0.0000000000E+00
         0.3300000000E+02     0.0000000000E+00
         0.3400000000E+02     0.0000000000E+00
         0.3500000000E+02     0.0000000000E+00
         0.3600000000E+02     0.0000000000E+00
         0.3700000000E+02     0.0000000000E+00
         0.3800000000E+02     0.0000000000E+00
         0.3900000000E+02     0.0000000000E+00
         0.4000000000E+02     0.0000000000E+00
         0.4100000000E+02     0.0000000000E+00
         0.4200000000E+02     0.0000000000E+00
         0.4300000000E+02     0.0000000000E+00
         0.4400000000E+02     0.0000000000E+00
         0.4500000000E+02     0.0000000000E+00
         0.4600000000E+02     0.0000000000E+00
         0.4700000000E+02     0.0000000000E+00
         0.4800000000E+02     0.0000000000E+00
         0.4900000000E+02     0.0000000000E+00
         0.5000000000E+02     0.0000000000E+00
         0.5100000000E+02     0.0000000000E+00
         0.5200000000E+02     0.0000000000E+00
         0.5300000000E+02     0.0000000000E+00
         0.5400000000E+02     0.0000000000E+00
         0.5500000000E+02     0.0000000000E+00
         0.5600000000E+02     0.0000000000E+00
         0.5700000000E+02     0.0000000000E+00
         0.5800000000E+02     0.0000000000E+00
         0.5900000000E+02     0.0000000000E+00
         0.6000000000E+02     0.0000000000E+00
         0.6100000000E+02     0.0000000000E+00
         0.6200000000E+02     0.0000000000E+00
         0.6300000000E+02     0.0000000000E+00
         0.6400000000E+02     0.0000000000E+00
         0.6500000000E+02     0.0000000000E+00
         0.6600000000E+02     0.0000000000E+00
         0.6700000000E+02     0.0000000000E+00
         0.6800000000E+02     0.0000000000E+00
         0.6900000000E+02     0.0000000000E+00
         0.7000000000E+02     0.0000000000E+00
         0.7100000000E+02     0.0000000000E+00
         0.7200000000E+02     0.0000000000E+00
         0.7300000000E+02     0.0000000000E+00
         0.7400000000E+02     0.0000000000E+00
         0.7500000000E+02     0.0000000000E+00
         0.7600000000E+02     0.0000000000E+00
         0.7700000000E+02     0.0000000000E+00
         0.7800000000E+02     0.0000000000E+00
         0.7900000000E+02     0.0000000000E+00
         0.8000000000E+02     0.0000000000E+00
         0.8100000000E+02     0.0000000000E+00
         0.8200000000E+02     0.0000000000E+00
         0.8300000000E+02     0.0000000000E+00
         0.8400000000E+02     0.0000000000E+00
         0.8500000000E+02     0.0000000000E+00
         0.8600000000E+02     0.0000000000E+00
         0.8700000000E+02     0.0000000000E+00
         0.8800000000E+02     0.0000000000E+00
         0.8900000000E+02     0.0000000000E+00
         0.9000000000E+02     0.0000000000E+00
         0.9100000000E+02     0.0000000000E+00
         0.9200000000E+02     0.0000000000E+00
         0.9300000000E+02     0.0000000000E+00
         0.9400000000E+02     0.0000000000E+00
         0.9500000000E+02     0.0000000000E+00
         0.9600000000E+02     0.0000000000E+00
         0.9700000000E+02     0.0000000000E+00
         0.9800000000E+02     0.0000000000E+00
         0.9900000000E+02     0.0000000000E+00
         0.1000000000E+03     0.0000000000E+00
         0.1010000000E+03     0.0000000000E+00
         0.1020000000E+03     0.0000000000E+00
         0.1030000000E+03     0.0000000000E+00
         0.1040000000E+03     0.0000000000E+00
         0.1050000000E+03     0.0000000000E+00
         0.1060000000E+03     0.0000000000E+00
         0.1070000000E+03     0.0000000000E+00
         0.1080000000E+03     0.0000000000E+00
         0.1090000000E+03     0.0000000000E+00
         0.1100000000E+03     0.0000000000E+00
         0.1110000000E+03     0.0000000000E+00
         0.1120000000E+03     0.0000000000E+00
         0.1130000000E+03     0.0000000000E+00
         0.1140000000E+03     0.0000000000E+00
         0.1150000000E+03     0.0000000000E+00
         0.1160000000E+03     0.0000000000E+00
         0.1170000000E+03     0.0000000000E+00
         0.1180000000E+03     0.0000000000E+00
         0.1190000000E+03     0.0000000000E+00
         0.1200000000E+03     0.0000000000E+00
         0.1210000000E+03     0.0000000000E+00
         0.1220000000E+03     0.0000000000E+00
         0.1230000000E+03     0.0000000000E+00
         0.1240000000E+03     0.0000000000E+00
         0.1250000000E+03     0.0000000000E+00
         0.1260000000E+03     0.0000000000E+00
         0.1270000000E+03     0.0000000000E+00
         0.1280000000E+03     0.0000000000E+00
         0.1290000000E+03     0.0000000000E+00
         0.1300000000E+03     0.0000000000E+00
         0.1310000000E+03     0.0000000000E+00
         0.1320000000E+03     0.0000000000E+00
         0.1330000000E+03     0.0000000000E+00
         0.1340000000E+03     0.0000000000E+00
         0.1350000000E+03     0.0000000000E+00
         0.1360000000E+03     0.0000000000E+00
         0.1370000000E+03     0.0000000000E+00
         0.1380000000E+03     0.0000000000E+00
         0.1390000000E+03     0.0000000000E+00
         0.1400000000E+03     0.0000000000E+00
         0.1410000000E+03     0.0000000000E+00
         0.1420000000E+03     0.0000000000E+00
         0.1430000000E+03     0.0000000000E+00
         0.1440000000E+03     0.0000000000E+00
         0.1450000000E+03     0.0000000000E+00
         0.1460000000E+03     0.0000000000E+00
         0.1470000000E+03     0.0000000000E+00
         0.1480000000E+03     0.0000000000E+00
         0.1490000000E+03     0.0000000000E+00
         0.1500000000E+03     0.0000000000E+00
         0.1510000000E+03     0.0000000000E+00
         0.1520000000E+03     0.0000000000E+00
         0.1530000000E+03     0.0000000000E+00
         0.1540000000E+03     0.0000000000E+00
         0.1550000000E+03     0.0000000000E+00
         0.1560000000E+03     0.0000000000E+00
         0.1570000000E+03     0.0000000000E+00
         0.1580000000E+03     0.0000000000E+00
         0.1590000000E+03     0.0000000000E+00
         0.1600000000E+03     0.0000000000E+00
         0.1610000000E+03     0.0000000000E+00
         0.1620000000E+03     0.0000000000E+00
         0.1630000000E+03     0.0000000000E+00
         0.1640000000E+03     0.0000000000E+00
         0.1650000000E+03     0.0000000000E+00
         0.1660000000E+03     0.0000000000E+00
         0.1670000000E+03     0.0000000000E+00
         0.1680000000E+03     0.0000000000E+00
         0.1690000000E+03     0.0000000000E+00
         0.1700000000E+03     0.0000000000E+00
         0.1710000000E+03     0.0000000000E+00
         0.1720000000E+03     0.0000000000E+00
         0.1730000000E+03     0.0000000000E+00
         0.1740000000E+03     0.0000000000E+00
         0.1750000000E+03     0.0000000000E+00
         0.1760000000E+03     0.0000000000E+00
         0.1770000000E+03     0.0000000000E+00
         0.1780000000E+03     0.0000000000E+00
         0.1790000000E+03     0.0000000000E+00
         0.1800000000E+03     0.0000000000E+00
         0.1810000000E+03     0.0000000000E+00
         0.1820000000E+03     0.0000000000E+00
         0.1830000000E+03     0.0000000000E+00
         0.1840000000E+03     0.0000000000E+00
         0.1850000000E+03     0.0000000000E+00
         0.1860000000E+03     0.0000000000E+00
         0.1870000000E+03     0.0000000000E+00
         0.1880000000E+03     0.0000000000E+00
         0.1890000000E+03     0.0000000000E+00
         0.1900000000E+03     0.0000000000E+00
         0.1910000000E+03     0.0000000000E+00
         0.1920000000E+03     0.0000000000E+00
         0.1930000000E+03     0.0000000000E+00
         0.1940000000E+03     0.0000000000E+00
         0.1950000000E+03     0.0000000000E+00
         0.1960000000E+03     0.0000000000E+00
         0.1970000000E+03     0.0000000000E+00
         0.1980000000E+03     0.0000000000E+00
         0.1990000000E+03     0.0000000000E+00
         0.2000000000E+03     0.0000000000E+00
         0.2010000000E+03     0.0000000000E+00
         0.2020000000E+03     0.0000000000E+00
         0.2030000000E+03     0.0000000000E+00
         0.2040000000E+03     0.0000000000E+00
         0.2050000000E+03     0.0000000000E+00
         0.2060000000E+03     0.0000000000E+00
         0.2070000000E+03     0.0000000000E+00
         0.2080000000E+03     0.0000000000E+00
         0.2090000000E+03     0.0000000000E+00
         0.2100000000E+03     0.0000000000E+00
         0.2110000000E+03     0.0000000000E+00
         0.2120000000E+03     0.0000000000E+00
         0.2130000000E+03     0.0000000000E+00
         0.2140000000E+03     0.0000000000E+00
         0.2150000000E+03     0.0000000000E+00
         0.2160000000E+03     0.0000000000E+00
         0.2170000000E+03     0.0000000000E+00
         0.2180000000E+03     0.0000000000E+00
         0.2190000000E+03     0.0000000000E+00
         0.2200000000E+03     0.0000000000E+00
         0.2210000000E+03     0.0000000000E+00
         0.2220000000E+03     0.0000000000E+00
         0.2230000000E+03     0.0000000000E+00
         0.2240000000E+03     0.0000000000E+00
         0.2250000000E+03     0.0000000000E+00
         0.2260000000E+03     0.0000000000E+00
         0.2270000000E+03     0.0000000000E+00
         0.2280000000E+03     0.0000000000E+00
         0.2290000000E+03     0.0000000000E+00
         0.2300000000E+03     0.0000000000E+00
         0.2310000000E+03     0.0000000000E+00
         0.2320000000E+03     0.0000000000E+00
         0.2330000000E+03     0.0000000000E+00
         0.2340000000E+03     0.0000000000E+00
         0.2350000000E+03     0.0000000000E+00
         0.2360000000E+03     0.0000000000E+00
         0.2370000000E+03     0.0000000000E+00
         0.2380000000E+03     0.0000000000E+00
         0.2390000000E+03     0.0000000000E+00
         0.2400000000E+03     0.0000000000E+00
         0.2410000000E+03     0.0000000000E+00
         0.2420000000E+03     0.0000000000E+00
         0.2430000000E+03     0.0000000000E+00
         0.2440000000E+03     0.0000000000E+00
         0.2450000000E+03     0.0000000000E+00
         0.2460000000E+03     0.0000000000E+00
         0.2470000000E+03     0.0000000000E+00
         0.2480000000E+03     0.0000000000E+00
         0.2490000000E+03     0.0000000000E+00
         0.2500000000E+03     0.0000000000E+00
         0.2510000000E+03     0.0000000000E+00
         0.2520000000E+03     0.0000000000E+00
         0.2530000000E+03     0.0000000000E+00
         0.2540000000E+03     0.0000000000E+00
         0.2550000000E+03     0.0000000000E+00
         0.2560000000E+03     0.0000000000E+00
         0.2570000000E+03     0.0000000000E+00
         0.2580000000E+03     0.0000000000E+00
         0.2590000000E+03     0.0000000000E+00
         0.2600000000E+03     0.0000000000E+00
         0.2610000000E+03     0.0000000000E+00
         0.2620000000E+03     0.0000000000E+00
         0.2630000000E+03     0.2000000000E+04
         0.2640000000E+03     0.2000000000E+04
         0.2650000000E+03     0.2000000000E+04
         0.2660000000E+03     0.2000000000E+04
         0.2670000000E+03     0.2000000000E+04
         0.2680000000E+03     0.2000000000E+04
         0.2690000000E+03     0.2000000000E+04
         0.2700000000E+03     0.2000000000E+04
         0.2710000000E+03     0.2000000000E+04
         0.2720000000E+03     0.2000000000E+04
         0.2730000000E+03     0.1000000000E+04
         0.2740000000E+03     0.1000000000E+04
         0.2750000000E+03     0.1000000000E+04
         0.2760000000E+03     0.1000000000E+04
         0.2770000000E+03     0.1000000000E+04
         0.2780000000E+03     0.1000000000E+04
         0.2790000000E+03     0.1000000000E+04
         0.2800000000E+03     0.1000000000E+04
         0.2810000000E+03     0.1000000000E+04
         0.2820000000E+03     0.1000000000E+04
         0.2830000000E+03     0.1000000000E+04
         0.2840000000E+03     0.1000000000E+04
         0.2850000000E+03     0.1000000000E+04
         0.2860000000E+03     0.1000000000E+04
         0.2870000000E+03     0.1000000000E+04
         0.2880000000E+03     0.1000000000E+04
         0.2890000000E+03     0.1000000000E+04
         0.2900000000E+03     0.1000000000E+04
         0.2910000000E+03     0.1000000000E+04
         0.2920000000E+03     0.1000000000E+04
         0.2930000000E+03     0.1000000000E+04
         0.2940000000E+03     0.1000000000E+04
         0.2950000000E+03     0.1000000000E+04
         0.2960000000E+03     0.1000000000E+04
         0.2970000000E+03     0.1000000000E+04
         0.2980000000E+03     0.1000000000E+04
         0.2990000000E+03     0.1000000000E+04
         0.3000000000E+03     0.1000000000E+04
         0.3010000000E+03     0.1000000000E+04
         0.3020000000E+03     0.1000000000E+04
         0.3030000000E+03     0.1000000000E+04
         0.3040000000E+03     0.1000000000E+04
         0.3050000000E+03     0.1000000000E+04
         0.3060000000E+03     0.1000000000E+04
         0.3070000000E+03     0.1000000000E+04
         0.3080000000E+03     0.1000000000E+04
         0.3090000000E+03     0.1000000000E+04
         0.3100000000E+03     0.1000000000E+04
         0.3110000000E+03     0.1000000000E+04
         0.3120000000E+03     0.1000000000E+04
         0.3130000000E+03     0.1000000000E+04
         0.3140000000E+03     0.1000000000E+04
         0.3150000000E+03     0.1000000000E+04
         0.3160000000E+03     0.1000000000E+04
         0.3170000000E+03     0.1000000000E+04
         0.3180000000E+03     0.1000000000E+04
         0.3190000000E+03     0.1000000000E+04
         0.3200000000E+03     0.1000000000E+04
         0.3210000000E+03     0.1000000000E+04
         0.3220000000E+03     0.1000000000E+04
         0.3230000000E+03     0.1000000000E+04
         0.3240000000E+03     0.1000000000E+04
         0.3250000000E+03     0.1000000000E+04
         0.3260000000E+03     0.1000000000E+04
         0.3270000000E+03     0.1000000000E+04
         0.3280000000E+03     0.1000000000E+04
         0.3290000000E+03     0.1000000000E+04
         0.3300000000E+03     0.1000000000E+04
         0.3310000000E+03     0.1000000000E+04
         0.3320000000E+03     0.1000000000E+04
         0.3330000000E+03     0.1000000000E+04
         0.3340000000E+03     0.1000000000E+04
         0.3350000000E+03     0.0000000000E+00
         0.3360000000E+03     0.0000000000E+00
         0.3370000000E+03     0.0000000000E+00
         0.3380000000E+03     0.0000000000E+00
         0.3390000000E+03     0.0000000000E+00
         0.3400000000E+03     0.0000000000E+00
         0.3410000000E+03     0.0000000000E+00
         0.3420000000E+03     0.0000000000E+00
         0.3430000000E+03     0.0000000000E+00
         0.3440000000E+03     0.0000000000E+00
         0.3450000000E+03     0.0000000000E+00
         0.3460000000E+03     0.0000000000E+00
         0.3470000000E+03     0.0000000000E+00
         0.3480000000E+03     0.0000000000E+00
         0.3490000000E+03     0.0000000000E+00
         0.3500000000E+03     0.0000000000E+00
         0.3510000000E+03     0.0000000000E+00
         0.3520000000E+03     0.0000000000E+00
         0.3530000000E+03     0.0000000000E+00
         0.3540000000E+03     0.0000000000E+00
         0.3550000000E+03     0.0000000000E+00
         0.3560000000E+03     0.0000000000E+00
         0.3570000000E+03     0.0000000000E+00
         0.3580000000E+03     0.0000000000E+00
         0.3590000000E+03     0.0000000000E+00
         0.3600000000E+03     0.0000000000E+00
         0.3610000000E+03     0.0000000000E+00
         0.3620000000E+03     0.0000000000E+00
         0.3630000000E+03     0.0000000000E+00
         0.3640000000E+03     0.0000000000E+00
         0.3650000000E+03     0.0000000000E+00
         0.3660000000E+03     0.0000000000E+00
         0.3670000000E+03     0.0000000000E+00
         0.3680000000E+03     0.0000000000E+00
         0.3690000000E+03     0.0000000000E+00
         0.3700000000E+03     0.0000000000E+00
         0.3710000000E+03     0.0000000000E+00
         0.3720000000E+03     0.0000000000E+00
         0.3730000000E+03     0.0000000000E+00
         0.3740000000E+03     0.0000000000E+00
         0.3750000000E+03     0.0000000000E+00
         0.3760000000E+03     0.0000000000E+00
         0.3770000000E+03     0.0000000000E+00
         0.3780000000E+03     0.0000000000E+00
         0.3790000000E+03     0.0000000000E+00
         0.3800000000E+03     0.0000000000E+00
         0.3810000000E+03     0.0000000000E+00
         0.3820000000E+03     0.0000000000E+00
         0.3830000000E+03     0.0000000000E+00
         0.3840000000E+03     0.0000000000E+00
         0.3850000000E+03     0.0000000000E+00
         0.3860000000E+03     0.0000000000E+00
         0.3870000000E+03     0.0000000000E+00
         0.3880000000E+03     0.0000000000E+00
         0.3890000000E+03     0.0000000000E+00
         0.3900000000E+03     0.0000000000E+00
         0.3910000000E+03     0.0000000000E+00
         0.3920000000E+03     0.0000000000E+00
         0.3930000000E+03     0.0000000000E+00
         0.3940000000E+03     0.0000000000E+00
         0.3950000000E+03     0.0000000000E+00
         0.3960000000E+03     0.0000000000E+00
         0.3970000000E+03     0.0000000000E+00
         0.3980000000E+03     0.0000000000E+00
         0.3990000000E+03     0.0000000000E+00
         0.4000000000E+03     0.0000000000E+00
         0.4010000000E+03     0.0000000000E+00
         0.4020000000E+03     0.0000000000E+00
         0.4030000000E+03     0.0000000000E+00
         0.4040000000E+03     0.0000000000E+00
         0.4050000000E+03     0.0000000000E+00
         0.4060000000E+03     0.0000000000E+00
         0.4070000000E+03     0.0000000000E+00
         0.4080000000E+03     0.0000000000E+00
         0.4090000000E+03     0.0000000000E+00
         0.4100000000E+03     0.0000000000E+00
         0.4110000000E+03     0.0000000000E+00
         0.4120000000E+03     0.0000000000E+00
         0.4130000000E+03     0.0000000000E+00
         0.4140000000E+03     0.0000000000E+00
         0.4150000000E+03     0.0000000000E+00
         0.4160000000E+03     0.0000000000E+00
         0.4170000000E+03     0.0000000000E+00
         0.4180000000E+03     0.0000000000E+00
         0.4190000000E+03     0.0000000000E+00
         0.4200000000E+03     0.0000000000E+00
         0.4210000000E+03     0.0000000000E+00
         0.4220000000E+03     0.0000000000E+00
         0.4230000000E+03     0.0000000000E+00
         0.4240000000E+03     0.0000000000E+00
         0.4250000000E+03     0.0000000000E+00
         0.4260000000E+03     0.0000000000E+00
         0.4270000000E+03     0.0000000000E+00
         0.4280000000E+03     0.0000000000E+00
         0.4290000000E+03     0.0000000000E+00
         0.4300000000E+03     0.0000000000E+00
         0.4310000000E+03     0.0000000000E+00
         0.4320000000E+03     0.0000000000E+00
         0.4330000000E+03     0.0000000000E+00
         0.4340000000E+03     0.0000000000E+00
         0.4350000000E+03     0.0000000000E+00
         0.4360000000E+03     0.0000000000E+00
         0.4370000000E+03     0.0000000000E+00
         0.4380000000E+03     0.0000000000E+00
         0.4390000000E+03     0.0000000000E+00
         0.4400000000E+03     0.0000000000E+00
         0.4410000000E+03     0.0000000000E+00
         0.4420000000E+03     0.0000000000E+00
         0.4430000000E+03     0.0000000000E+00
         0.4440000000E+03     0.0000000000E+00
         0.4450000000E+03     0.0000000000E+00
         0.4460000000E+03     0.0000000000E+00
         0.4470000000E+03     0.0000000000E+00
         0.4480000000E+03     0.0000000000E+00
         0.4490000000E+03     0.0000000000E+00
         0.4500000000E+03     0.0000000000E+00
         0.4510000000E+03     0.0000000000E+00
         0.4520000000E+03     0.0000000000E+00
         0.4530000000E+03     0.0000000000E+00
         0.4540000000E+03     0.0000000000E+00
         0.4550000000E+03     0.0000000000E+00
         0.4560000000E+03     0.0000000000E+00
         0.4570000000E+03     0.0000000000E+00
         0.4580000000E+03     0.0000000000E+00
         0.4590000000E+03     0.0000000000E+00
         0.4600000000E+03     0.0000000000E+00
         0.4610000000E+03     0.0000000000E+00
         0.4620000000E+03     0.0000000000E+00
         0.4630000000E+03     0.0000000000E+00
         0.4640000000E+03     0.0000000000E+00
         0.4650000000E+03     0.0000000000E+00
         0.4660000000E+03     0.0000000000E+00
         0.4670000000E+03     0.0000000000E+00
         0.4680000000E+03     0.0000000000E+00
         0.4690000000E+03     0.0000000000E+00
         0.4700000000E+03     0.0000000000E+00
         0.4710000000E+03     0.0000000000E+00
         0.4720000000E+03     0.0000000000E+00
         0.4730000000E+03     0.0000000000E+00
         0.4740000000E+03     0.0000000000E+00
         0.4750000000E+03     0.0000000000E+00
         0.4760000000E+03     0.0000000000E+00
         0.4770000000E+03     0.0000000000E+00
         0.4780000000E+03     0.0000000000E+00
         0.4790000000E+03     0.0000000000E+00
         0.4800000000E+03     0.0000000000E+00
         0.4810000000E+03     0.0000000000E+00
         0.4820000000E+03     0.0000000000E+00
         0.4830000000E+03     0.0000000000E+00
         0.4840000000E+03     0.0000000000E+00
         0.4850000000E+03     0.0000000000E+00
         0.4860000000E+03     0.0000000000E+00
         0.4870000000E+03     0.0000000000E+00
         0.4880000000E+03     0.0000000000E+00
         0.4890000000E+03     0.0000000000E+00
         0.4900000000E+03     0.0000000000E+00
         0.4910000000E+03     0.0000000000E+00
         0.4920000000E+03     0.0000000000E+00
         0.4930000000E+03     0.0000000000E+00
         0.4940000000E+03     0.0000000000E+00
         0.4950000000E+03     0.0000000000E+00
         0.4960000000E+03     0.0000000000E+00
         0.4970000000E+03     0.0000000000E+00
         0.4980000000E+03     0.0000000000E+00
         0.4990000000E+03     0.0000000000E+00
         0.5000000000E+03     0.0000000000E+00
         0.5010000000E+03     0.0000000000E+00
         0.5020000000E+03     0.0000000000E+00
         0.5030000000E+03     0.0000000000E+00
         0.5040000000E+03     0.0000000000E+00
         0.5050000000E+03     0.0000000000E+00
         0.5060000000E+03     0.0000000000E+00
         0.5070000000E+03     0.0000000000E+00
         0.5080000000E+03     0.0000000000E+00
         0.5090000000E+03     0.0000000000E+00
         0.5100000000E+03     0.0000000000E+00
         0.5110000000E+03     0.0000000000E+00
         0.5120000000E+03     0.0000000000E+00
         0.5130000000E+03     0.0000000000E+00
         0.5140000000E+03     0.0000000000E+00
         0.5150000000E+03     0.0000000000E+00
         0.5160000000E+03     0.0000000000E+00
         0.5170000000E+03     0.0000000000E+00
         0.5180000000E+03     0.0000000000E+00
         0.5190000000E+03     0.0000000000E+00
         0.5200000000E+03     0.0000000000E+00
         0.5210000000E+03     0.0000000000E+00
         0.5220000000E+03     0.0000000000E+00
         0.5230000000E+03     0.0000000000E+00
         0.5240000000E+03     0.0000000000E+00
         0.5250000000E+03     0.0000000000E+00
         0.5260000000E+03     0.0000000000E+00
         0.5270000000E+03     0.0000000000E+00
         0.5280000000E+03     0.0000000000E+00
         0.5290000000E+03     0.0000000000E+00
         0.5300000000E+03     0.0000000000E+00
         0.5310000000E+03     0.0000000000E+00
         0.5320000000E+03     0.0000000000E+00
         0.5330000000E+03     0.0000000000E+00
         0.5340000000E+03     0.0000000000E+00
         0.5350000000E+03     0.0000000000E+00
         0.5360000000E+03     0.0000000000E+00
         0.5370000000E+03     0.0000000000E+00
         0.5380000000E+03     0.0000000000E+00
         0.5390000000E+03     0.0000000000E+00
         0.5400000000E+03     0.0000000000E+00
         0.5410000000E+03     0.0000000000E+00
         0.5420000000E+03     0.0000000000E+00
         0.5430000000E+03     0.0000000000E+00
         0.5440000000E+03     0.0000000000E+00
         0.5450000000E+03     0.0000000000E+00
         0.5460000000E+03     0.0000000000E+00
         0.5470000000E+03     0.0000000000E+00
         0.5480000000E+03     0.0000000000E+00
         0.5490000000E+03     0.0000000000E+00
         0.5500000000E+03     0.0000000000E+00
         0.5510000000E+03     0.0000000000E+00
         0.5520000000E+03     0.0000000000E+00
         0.5530000000E+03     0.0000000000E+00
         0.5540000000E+03     0.0000000000E+00
         0.5550000000E+03     0.0000000000E+00
         0.5560000000E+03     0.0000000000E+00
         0.5570000000E+03     0.0000000000E+00
         0.5580000000E+03     0.0000000000E+00
         0.5590000000E+03     0.0000000000E+00
         0.5600000000E+03     0.0000000000E+00
         0.5610000000E+03     0.0000000000E+00
         0.5620000000E+03     0.0000000000E+00
         0.5630000000E+03     0.0000000000E+00
         0.5640000000E+03     0.0000000000E+00
         0.5650000000E+03     0.0000000000E+00
         0.5660000000E+03     0.0000000000E+00
         0.5670000000E+03     0.0000000000E+00
         0.5680000000E+03     0.0000000000E+00
         0.5690000000E+03     0.0000000000E+00
         0.5700000000E+03     0.0000000000E+00
         0.5710000000E+03     0.0000000000E+00
         0.5720000000E+03     0.0000000000E+00
         0.5730000000E+03     0.0000000000E+00
         0.5740000000E+03     0.0000000000E+00
         0.5750000000E+03     0.0000000000E+00
         0.5760000000E+03     0.0000000000E+00
         0.5770000000E+03     0.0000000000E+00
         0.5780000000E+03     0.0000000000E+00
         0.5790000000E+03     0.0000000000E+00
         0.5800000000E+03     0.0000000000E+00
         0.5810000000E+03     0.0000000000E+00
         0.5820000000E+03     0.0000000000E+00
         0.5830000000E+03     0.0000000000E+00
         0.5840000000E+03     0.0000000000E+00
         0.5850000000E+03     0.0000000000E+00
         0.5860000000E+03     0.0000000000E+00
         0.5870000000E+03     0.0000000000E+00
         0.5880000000E+03     0.0000000000E+00
         0.5890000000E+03     0.0000000000E+00
         0.5900000000E+03     0.0000000000E+00
         0.5910000000E+03     0.0000000000E+00
         0.5920000000E+03     0.0000000000E+00
         0.5930000000E+03     0.0000000000E+00
         0.5940000000E+03     0.0000000000E+00
         0.5950000000E+03     0.0000000000E+00
         0.5960000000E+03     0.0000000000E+00
         0.5970000000E+03     0.0000000000E+00
         0.5980000000E+03     0.0000000000E+00
         0.5990000000E+03     0.0000000000E+00
         0.6000000000E+03     0.0000000000E+00
         0.6010000000E+03     0.0000000000E+00
         0.6020000000E+03     0.0000000000E+00
         0.6030000000E+03     0.0000000000E+00
         0.6040000000E+03     0.0000000000E+00
         0.6050000000E+03     0.0000000000E+00
         0.6060000000E+03     0.0000000000E+00
         0.6070000000E+03     0.0000000000E+00
         0.6080000000E+03     0.0000000000E+00
         0.6090000000E+03     0.0000000000E+00
         0.6100000000E+03     0.0000000000E+00
         0.6110000000E+03     0.0000000000E+00
         0.6120000000E+03     0.0000000000E+00
         0.6130000000E+03     0.0000000000E+00
         0.6140000000E+03     0.0000000000E+00
         0.6150000000E+03     0.0000000000E+00
         0.6160000000E+03     0.0000000000E+00
         0.6170000000E+03     0.0000000000E+00
         0.6180000000E+03     0.0000000000E+00
         0.6190000000E+03     0.0000000000E+00
         0.6200000000E+03     0.0000000000E+00
         0.6210000000E+03     0.0000000000E+00
         0.6220000000E+03     0.0000000000E+00
         0.6230000000E+03     0.0000000000E+00
         0.6240000000E+03     0.0000000000E+00
         0.6250000000E+03     0.0000000000E+00
         0.6260000000E+03     0.0000000000E+00
         0.6270000000E+03     0.0000000000E+00
         0.6280000000E+03     0.0000000000E+00
         0.6290000000E+03     0.2000000000E+04
         0.6300000000E+03     0.2000000000E+04
         0.6310000000E+03     0.2000000000E+04
         0.6320000000E+03     0.2000000000E+04
         0.6330000000E+03     0.2000000000E+04
         0.6340000000E+03     0.2000000000E+04
         0.6350000000E+03     0.2000000000E+04
         0.6360000000E+03     0.2000000000E+04
         0.6370000000E+03     0.2000000000E+04
         0.6380000000E+03     0.2000000000E+04
         0.6390000000E+03     0.1000000000E+04
         0.6400000000E+03     0.1000000000E+04
         0.6410000000E+03     0.1000000000E+04
         0.6420000000E+03     0.1000000000E+04
         0.6430000000E+03     0.1000000000E+04
         0.6440000000E+03     0.1000000000E+04
         0.6450000000E+03     0.1000000000E+04
         0.6460000000E+03     0.1000000000E+04
         0.6470000000E+03     0.1000000000E+04
         0.6480000000E+03     0.1000000000E+04
         0.6490000000E+03     0.1000000000E+04
         0.6500000000E+03     0.1000000000E+04
         0.6510000000E+03     0.1000000000E+04
         0.6520000000E+03     0.1000000000E+04
         0.6530000000E+03     0.1000000000E+04
         0.6540000000E+03     0.1000000000E+04
         0.6550000000E+03     0.1000000000E+04
         0.6560000000E+03     0.1000000000E+04
         0.6570000000E+03     0.1000000000E+04
         0.6580000000E+03     0.1000000000E+04
         0.6590000000E+03     0.1000000000E+04
         0.6600000000E+03     0.1000000000E+04
         0.6610000000E+03     0.1000000000E+04
         0.6620000000E+03     0.1000000000E+04
         0.6630000000E+03     0.1000000000E+04
         0.6640000000E+03     0.1000000000E+04
         0.6650000000E+03     0.1000000000E+04
         0.6660000000E+03     0.1000000000E+04
         0.6670000000E+03     0.1000000000E+04
         0.6680000000E+03     0.1000000000E+04
         0.6690000000E+03     0.1000000000E+04
         0.6700000000E+03     0.1000000000E+04
         0.6710000000E+03     0.1000000000E+04
         0.6720000000E+03     0.1000000000E+04
         0.6730000000E+03     0.1000000000E+04
         0.6740000000E+03     0.1000000000E+04
         0.6750000000E+03     0.1000000000E+04
         0.6760000000E+03     0.1000000000E+04
         0.6770000000E+03     0.1000000000E+04
         0.6780000000E+03     0.1000000000E+04
         0.6790000000E+03     0.1000000000E+04
         0.6800000000E+03     0.1000000000E+04
         0.6810000000E+03     0.1000000000E+04
         0.6820000000E+03     0.1000000000E+04
         0.6830000000E+03     0.1000000000E+04
         0.6840000000E+03     0.1000000000E+04
         0.6850000000E+03     0.1000000000E+04
         0.6860000000E+03     0.1000000000E+04
         0.6870000000E+03     0.1000000000E+04
         0.6880000000E+03     0.1000000000E+04
         0.6890000000E+03     0.1000000000E+04
         0.6900000000E+03     0.1000000000E+04
         0.6910000000E+03     0.1000000000E+04
         0.6920000000E+03     0.1000000000E+04
         0.6930000000E+03     0.1000000000E+04
         0.6940000000E+03     0.1000000000E+04
         0.6950000000E+03     0.1000000000E+04
         0.6960000000E+03     0.1000000000E+04
         0.6970000000E+03     0.1000000000E+04
         0.6980000000E+03     0.1000000000E+04
         0.6990000000E+03     0.1000000000E+04
         0.7000000000E+03     0.1000000000E+04
         0.7010000000E+03     0.0000000000E+00
         0.7020000000E+03     0.0000000000E+00
         0.7030000000E+03     0.0000000000E+00
         0.7040000000E+03     0.0000000000E+00
         0.7050000000E+03     0.0000000000E+00
         0.7060000000E+03     0.0000000000E+00
         0.7070000000E+03     0.0000000000E+00
         0.7080000000E+03     0.0000000000E+00
         0.7090000000E+03     0.0000000000E+00
         0.7100000000E+03     0.0000000000E+00
         0.7110000000E+03     0.0000000000E+00
         0.7120000000E+03     0.0000000000E+00
         0.7130000000E+03     0.0000000000E+00
         0.7140000000E+03     0.0000000000E+00
         0.7150000000E+03     0.0000000000E+00
         0.7160000000E+03     0.0000000000E+00
         0.7170000000E+03     0.0000000000E+00
         0.7180000000E+03     0.0000000000E+00
         0.7190000000E+03     0.0000000000E+00
         0.7200000000E+03     0.0000000000E+00
         0.7210000000E+03     0.0000000000E+00
         0.7220000000E+03     0.0000000000E+00
         0.7230000000E+03     0.0000000000E+00
         0.7240000000E+03     0.0000000000E+00
         0.7250000000E+03     0.0000000000E+00
         0.7260000000E+03     0.0000000000E+00
         0.7270000000E+03     0.0000000000E+00
         0.7280000000E+03     0.0000000000E+00
         0.7290000000E+03     0.0000000000E+00
         0.7300000000E+03     0.0000000000E+00
         0.7310000000E+03     0.0000000000E+00
         0.7320000000E+03     0.0000000000E+00
         0.7330000000E+03     0.0000000000E+00
         0.7340000000E+03     0.0000000000E+00
         0.7350000000E+03     0.0000000000E+00
         0.7360000000E+03     0.0000000000E+00
         0.7370000000E+03     0.0000000000E+00
         0.7380000000E+03     0.0000000000E+00
         0.7390000000E+03     0.0000000000E+00
         0.7400000000E+03     0.0000000000E+00
         0.7410000000E+03     0.0000000000E+00
         0.7420000000E+03     0.0000000000E+00
         0.7430000000E+03     0.0000000000E+00
         0.7440000000E+03     0.0000000000E+00
         0.7450000000E+03     0.0000000000E+00
         0.7460000000E+03     0.0000000000E+00
         0.7470000000E+03     0.0000000000E+00
         0.7480000000E+03     0.0000000000E+00
         0.7490000000E+03     0.0000000000E+00
         0.7500000000E+03     0.0000000000E+00
         0.7510000000E+03     0.0000000000E+00
         0.7520000000E+03     0.0000000000E+00
         0.7530000000E+03     0.0000000000E+00
         0.7540000000E+03     0.0000000000E+00
         0.7550000000E+03     0.0000000000E+00
         0.7560000000E+03     0.0000000000E+00
         0.7570000000E+03     0.0000000000E+00
         0.7580000000E+03     0.0000000000E+00
         0.7590000000E+03     0.0000000000E+00
         0.7600000000E+03     0.0000000000E+00
         0.7610000000E+03     0.0000000000E+00
         0.7620000000E+03     0.0000000000E+00
         0.7630000000E+03     0.0000000000E+00
         0.7640000000E+03     0.0000000000E+00
         0.7650000000E+03     0.0000000000E+00
         0.7660000000E+03     0.0000000000E+00
         0.7670000000E+03     0.0000000000E+00
         0.7680000000E+03     0.0000000000E+00
         0.7690000000E+03     0.0000000000E+00
         0.7700000000E+03     0.0000000000E+00
         0.7710000000E+03     0.0000000000E+00
         0.7720000000E+03     0.0000000000E+00
         0.7730000000E+03     0.0000000000E+00
         0.7740000000E+03     0.0000000000E+00
         0.7750000000E+03     0.0000000000E+00
         0.7760000000E+03     0.0000000000E+00
         0.7770000000E+03     0.0000000000E+00
         0.7780000000E+03     0.0000000000E+00
         0.7790000000E+03     0.0000000000E+00
         0.7800000000E+03     0.0000000000E+00
         0.7810000000E+03     0.0000000000E+00
         0.7820000000E+03     0.0000000000E+00
         0.7830000000E+03     0.0000000000E+00
         0.7840000000E+03     0.0000000000E+00
         0.7850000000E+03     0.0000000000E+00
         0.7860000000E+03     0.0000000000E+00
         0.7870000000E+03     0.0000000000E+00
         0.7880000000E+03     0.0000000000E+00
         0.7890000000E+03     0.0000000000E+00
         0.7900000000E+03     0.0000000000E+00
         0.7910000000E+03     0.0000000000E+00
         0.7920000000E+03     0.0000000000E+00
         0.7930000000E+03     0.0000000000E+00
         0.7940000000E+03     0.0000000000E+00
         0.7950000000E+03     0.0000000000E+00
         0.7960000000E+03     0.0000000000E+00
         0.7970000000E+03     0.0000000000E+00
         0.7980000000E+03     0.0000000000E+00
         0.7990000000E+03     0.0000000000E+00
         0.8000000000E+03     0.0000000000E+00
         0.8010000000E+03     0.0000000000E+00
         0.8020000000E+03     0.0000000000E+00
         0.8030000000E+03     0.0000000000E+00
         0.8040000000E+03     0.0000000000E+00
         0.8050000000E+03     0.0000000000E+00
         0.8060000000E+03     0.0000000000E+00
         0.8070000000E+03     0.0000000000E+00
         0.8080000000E+03     0.0000000000E+00
         0.8090000000E+03     0.0000000000E+00
         0.8100000000E+03     0.0000000000E+00
         0.8110000000E+03     0.0000000000E+00
         0.8120000000E+03     0.0000000000E+00
         0.8130000000E+03     0.0000000000E+00
         0.8140000000E+03     0.0000000000E+00
         0.8150000000E+03     0.0000000000E+00
         0.8160000000E+03     0.0000000000E+00
         0.8170000000E+03     0.0000000000E+00
         0.8180000000E+03     0.0000000000E+00
         0.8190000000E+03     0.0000000000E+00
         0.8200000000E+03     0.0000000000E+00
         0.8210000000E+03     0.0000000000E+00
         0.8220000000E+03     0.0000000000E+00
         0.8230000000E+03     0.0000000000E+00
         0.8240000000E+03     0.0000000000E+00
         0.8250000000E+03     0.0000000000E+00
         0.8260000000E+03     0.0000000000E+00
         0.8270000000E+03     0.0000000000E+00
         0.8280000000E+03     0.0000000000E+00
         0.8290000000E+03     0.0000000000E+00
         0.8300000000E+03     0.0000000000E+00
         0.8310000000E+03     0.0000000000E+00
         0.8320000000E+03     0.0000000000E+00
         0.8330000000E+03     0.0000000000E+00
         0.8340000000E+03     0.0000000000E+00
         0.8350000000E+03     0.0000000000E+00
         0.8360000000E+03     0.0000000000E+00
         0.8370000000E+03     0.0000000000E+00
         0.8380000000E+03     0.0000000000E+00
         0.8390000000E+03     0.0000000000E+00
         0.8400000000E+03     0.0000000000E+00
         0.8410000000E+03     0.0000000000E+00
         0.8420000000E+03     0.0000000000E+00
         0.8430000000E+03     0.0000000000E+00
         0.8440000000E+03     0.0000000000E+00
         0.8450000000E+03     0.0000000000E+00
         0.8460000000E+03     0.0000000000E+00
         0.8470000000E+03     0.0000000000E+00
         0.8480000000E+03     0.0000000000E+00
         0.8490000000E+03     0.0000000000E+00
         0.8500000000E+03     0.0000000000E+00
         0.8510000000E+03     0.0000000000E+00
         0.8520000000E+03     0.0000000000E+00
         0.8530000000E+03     0.0000000000E+00
         0.8540000000E+03     0.0000000000E+00
         0.8550000000E+03     0.0000000000E+00
         0.8560000000E+03     0.0000000000E+00
         0.8570000000E+03     0.0000000000E+00
         0.8580000000E+03     0.0000000000E+00
         0.8590000000E+03     0.0000000000E+00
         0.8600000000E+03     0.0000000000E+00
         0.8610000000E+03     0.0000000000E+00
         0.8620000000E+03     0.0000000000E+00
         0.8630000000E+03     0.0000000000E+00
         0.8640000000E+03     0.0000000000E+00
         0.8650000000E+03     0.0000000000E+00
         0.8660000000E+03     0.0000000000E+00
         0.8670000000E+03     0.0000000000E+00
         0.8680000000E+03     0.0000000000E+00
         0.8690000000E+03     0.0000000000E+00
         0.8700000000E+03     0.0000000000E+00
         0.8710000000E+03     0.0000000000E+00
         0.8720000000E+03     0.0000000000E+00
         0.8730000000E+03     0.0000000000E+00
         0.8740000000E+03     0.0000000000E+00
         0.8750000000E+03     0.0000000000E+00
         0.8760000000E+03     0.0000000000E+00
         0.8770000000E+03     0.0000000000E+00
         0.8780000000E+03     0.0000000000E+00
         0.8790000000E+03     0.0000000000E+00
         0.8800000000E+03     0.0000000000E+00
         0.8810000000E+03     0.0000000000E+00
         0.8820000000E+03     0.0000000000E+00
         0.8830000000E+03     0.0000000000E+00
         0.8840000000E+03     0.0000000000E+00
         0.8850000000E+03     0.0000000000E+00
         0.8860000000E+03     0.0000000000E+00
         0.8870000000E+03     0.0000000000E+00
         0.8880000000E+03     0.0000000000E+00
         0.8890000000E+03     0.0000000000E+00
         0.8900000000E+03     0.0000000000E+00
         0.8910000000E+03     0.0000000000E+00
         0.8920000000E+03     0.0000000000E+00
         0.8930000000E+03     0.0000000000E+00
         0.8940000000E+03     0.0000000000E+00
         0.8950000000E+03     0.0000000000E+00
         0.8960000000E+03     0.0000000000E+00
         0.8970000000E+03     0.0000000000E+00
         0.8980000000E+03     0.0000000000E+00
         0.8990000000E+03     0.0000000000E+00
         0.9000000000E+03     0.0000000000E+00
         0.9010000000E+03     0.0000000000E+00
         0.9020000000E+03     0.0000000000E+00
         0.9030000000E+03     0.0000000000E+00
         0.9040000000E+03     0.0000000000E+00
         0.9050000000E+03     0.0000000000E+00
         0.9060000000E+03     0.0000000000E+00
         0.9070000000E+03     0.0000000000E+00
         0.9080000000E+03     0.0000000000E+00
         0.9090000000E+03     0.0000000000E+00
         0.9100000000E+03     0.0000000000E+00
         0.9110000000E+03     0.0000000000E+00
         0.9120000000E+03     0.0000000000E+00
         0.9130000000E+03     0.0000000000E+00
         0.9140000000E+03     0.0000000000E+00
         0.9150000000E+03     0.0000000000E+00
         0.9160000000E+03     0.0000000000E+00
         0.9170000000E+03     0.0000000000E+00
         0.9180000000E+03     0.0000000000E+00
         0.9190000000E+03     0.0000000000E+00
         0.9200000000E+03     0.0000000000E+00
         0.9210000000E+03     0.0000000000E+00
         0.9220000000E+03     0.0000000000E+00
         0.9230000000E+03     0.0000000000E+00
         0.9240000000E+03     0.0000000000E+00
         0.9250000000E+03     0.0000000000E+00
         0.9260000000E+03     0.0000000000E+00
         0.9270000000E+03     0.0000000000E+00
         0.9280000000E+03     0.0000000000E+00
         0.9290000000E+03     0.0000000000E+00
         0.9300000000E+03     0.0000000000E+00
         0.9310000000E+03     0.0000000000E+00
         0.9320000000E+03     0.0000000000E+00
         0.9330000000E+03     0.0000000000E+00
         0.9340000000E+03     0.0000000000E+00
         0.9350000000E+03     0.0000000000E+00
         0.9360000000E+03     0.0000000000E+00
         0.9370000000E+03     0.0000000000E+00
         0.9380000000E+03     0.0000000000E+00
         0.9390000000E+03     0.0000000000E+00
         0.9400000000E+03     0.0000000000E+00
         0.9410000000E+03     0.0000000000E+00
         0.9420000000E+03     0.0000000000E+00
         0.9430000000E+03     0.0000000000E+00
         0.9440000000E+03     0.0000000000E+00
         0.9450000000E+03     0.0000000000E+00
         0.9460000000E+03     0.0000000000E+00
         0.9470000000E+03     0.0000000000E+00
         0.9480000000E+03     0.0000000000E+00
         0.9490000000E+03     0.0000000000E+00
         0.9500000000E+03     0.0000000000E+00
         0.9510000000E+03     0.0000000000E+00
         0.9520000000E+03     0.0000000000E+00
         0.9530000000E+03     0.0000000000E+00
         0.9540000000E+03     0.0000000000E+00
         0.9550000000E+03     0.0000000000E+00
         0.9560000000E+03     0.0000000000E+00
         0.9570000000E+03     0.0000000000E+00
         0.9580000000E+03     0.0000000000E+00
         0.9590000000E+03     0.0000000000E+00
         0.9600000000E+03     0.0000000000E+00
         0.9610000000E+03     0.0000000000E+00
         0.9620000000E+03     0.0000000000E+00
         0.9630000000E+03     0.0000000000E+00
         0.9640000000E+03     0.0000000000E+00
         0.9650000000E+03     0.0000000000E+00
         0.9660000000E+03     0.0000000000E+00
         0.9670000000E+03     0.0000000000E+00
         0.9680000000E+03     0.0000000000E+00
         0.9690000000E+03     0.0000000000E+00
         0.9700000000E+03     0.0000000000E+00
         0.9710000000E+03     0.0000000000E+00
         0.9720000000E+03     0.0000000000E+00
         0.9730000000E+03     0.0000000000E+00
         0.9740000000E+03     0.0000000000E+00
         0.9750000000E+03     0.0000000000E+00
         0.9760000000E+03     0.0000000000E+00
         0.9770000000E+03     0.0000000000E+00
         0.9780000000E+03     0.0000000000E+00
         0.9790000000E+03     0.0000000000E+00
         0.9800000000E+03     0.0000000000E+00
         0.9810000000E+03     0.0000000000E+00
         0.9820000000E+03     0.0000000000E+00
         0.9830000000E+03     0.0000000000E+00
         0.9840000000E+03     0.0000000000E+00
         0.9850000000E+03     0.0000000000E+00
         0.9860000000E+03     0.0000000000E+00
         0.9870000000E+03     0.0000000000E+00
         0.9880000000E+03     0.0000000000E+00
         0.9890000000E+03     0.0000000000E+00
         0.9900000000E+03     0.0000000000E+00
         0.9910000000E+03     0.0000000000E+00
         0.9920000000E+03     0.0000000000E+00
         0.9930000000E+03     0.0000000000E+00
         0.9940000000E+03     0.2000000000E+04
         0.9950000000E+03     0.2000000000E+04
         0.9960000000E+03     0.2000000000E+04
         0.9970000000E+03     0.2000000000E+04
         0.9980000000E+03     0.2000000000E+04
         0.9990000000E+03     0.2000000000E+04
         0.1000000000E+04     0.2000000000E+04
         0.1001000000E+04     0.2000000000E+04
         0.1002000000E+04     0.2000000000E+04
         0.1003000000E+04     0.2000000000E+04
         0.1004000000E+04     0.1000000000E+04
         0.1005000000E+04     0.1000000000E+04
         0.1006000000E+04     0.1000000000E+04
         0.1007000000E+04     0.1000000000E+04
         0.1008000000E+04     0.1000000000E+04
         0.1009000000E+04     0.1000000000E+04
         0.1010000000E+04     0.1000000000E+04
         0.1011000000E+04     0.1000000000E+04
         0.1012000000E+04     0.1000000000E+04
         0.1013000000E+04     0.1000000000E+04
         0.1014000000E+04     0.1000000000E+04
         0.1015000000E+04     0.1000000000E+04
         0.1016000000E+04     0.1000000000E+04
         0.1017000000E+04     0.1000000000E+04
         0.1018000000E+04     0.1000000000E+04
         0.1019000000E+04     0.1000000000E+04
         0.1020000000E+04     0.1000000000E+04
         0.1021000000E+04     0.1000000000E+04
         0.1022000000E+04     0.1000000000E+04
         0.1023000000E+04     0.1000000000E+04
         0.1024000000E+04     0.1000000000E+04
         0.1025000000E+04     0.1000000000E+04
         0.1026000000E+04     0.1000000000E+04
         0.1027000000E+04     0.1000000000E+04
         0.1028000000E+04     0.1000000000E+04
         0.1029000000E+04     0.1000000000E+04
         0.1030000000E+04     0.1000000000E+04
         0.1031000000E+04     0.1000000000E+04
         0.1032000000E+04     0.1000000000E+04
         0.1033000000E+04     0.1000000000E+04
         0.1034000000E+04     0.1000000000E+04
         0.1035000000E+04     0.1000000000E+04
         0.1036000000E+04     0.1000000000E+04
         0.1037000000E+04     0.1000000000E+04
         0.1038000000E+04     0.1000000000E+04
         0.1039000000E+04     0.1000000000E+04
         0.1040000000E+04     0.1000000000E+04
         0.1041000000E+04     0.1000000000E+04
         0.1042000000E+04     0.1000000000E+04
         0.1043000000E+04     0.1000000000E+04
         0.1044000000E+04     0.1000000000E+04
         0.1045000000E+04     0.1000000000E+04
         0.1046000000E+04     0.1000000000E+04
         0.1047000000E+04     0.1000000000E+04
         0.1048000000E+04     0.1000000000E+04
         0.1049000000E+04     0.1000000000E+04
         0.1050000000E+04     0.1000000000E+04
         0.1051000000E+04     0.1000000000E+04
         0.1052000000E+04     0.1000000000E+04
         0.1053000000E+04     0.1000000000E+04
         0.1054000000E+04     0.1000000000E+04
         0.1055000000E+04     0.1000000000E+04
         0.1056000000E+04     0.1000000000E+04
         0.1057000000E+04     0.1000000000E+04
         0.1058000000E+04     0.1000000000E+04
         0.1059000000E+04     0.1000000000E+04
         0.1060000000E+04     0.1000000000E+04
         0.1061000000E+04     0.1000000000E+04
         0.1062000000E+04     0.1000000000E+04
         0.1063000000E+04     0.1000000000E+04
         0.1064000000E+04     0.1000000000E+04
         0.1065000000E+04     0.1000000000E+04
         0.1066000000E+04     0.0000000000E+00
         0.1067000000E+04     0.0000000000E+00
         0.1068000000E+04     0.0000000000E+00
         0.1069000000E+04     0.0000000000E+00
         0.1070000000E+04     0.0000000000E+00
         0.1071000000E+04     0.0000000000E+00
         0.1072000000E+04     0.0000000000E+00
         0.1073000000E+04     0.0000000000E+00
         0.1074000000E+04     0.0000000000E+00
         0.1075000000E+04     0.0000000000E+00
         0.1076000000E+04     0.0000000000E+00
         0.1077000000E+04     0.0000000000E+00
         0.1078000000E+04     0.0000000000E+00
         0.1079000000E+04     0.0000000000E+00
         0.1080000000E+04     0.0000000000E+00
         0.1081000000E+04     0.0000000000E+00
         0.1082000000E+04     0.0000000000E+00
         0.1083000000E+04     0.0000000000E+00
         0.1084000000E+04     0.0000000000E+00
         0.1085000000E+04     0.0000000000E+00
         0.1086000000E+04     0.0000000000E+00
         0.1087000000E+04     0.0000000000E+00
         0.1088000000E+04     0.0000000000E+00
         0.1089000000E+04     0.0000000000E+00
         0.1090000000E+04     0.0000000000E+00
         0.1091000000E+04     0.0000000000E+00
         0.1092000000E+04     0.0000000000E+00
         0.1093000000E+04     0.0000000000E+00
         0.1094000000E+04     0.0000000000E+00
         0.1095000000E+04     0.0000000000E+00
         0.1096000000E+04     0.0000000000E+00
         0.1097000000E+04     0.0000000000E+00
         0.1098000000E+04     0.0000000000E+00
         0.1099000000E+04     0.0000000000E+00
         0.1100000000E+04     0.0000000000E+00
         0.1101000000E+04     0.0000000000E+00
         0.1102000000E+04     0.0000000000E+00
         0.1103000000E+04     0.0000000000E+00
         0.1104000000E+04     0.0000000000E+00
         0.1105000000E+04     0.0000000000E+00
         0.1106000000E+04     0.0000000000E+00
         0.1107000000E+04     0.0000000000E+00
         0.1108000000E+04     0.0000000000E+00
         0.1109000000E+04     0.0000000000E+00
         0.1110000000E+04     0.0000000000E+00
         0.1111000000E+04     0.0000000000E+00
         0.1112000000E+04     0.0000000000E+00
         0.1113000000E+04     0.0000000000E+00
         0.1114000000E+04     0.0000000000E+00
         0.1115000000E+04     0.0000000000E+00
         0.1116000000E+04     0.0000000000E+00
         0.1117000000E+04     0.0000000000E+00
         0.1118000000E+04     0.0000000000E+00
         0.1119000000E+04     0.0000000000E+00
         0.1120000000E+04     0.0000000000E+00
         0.1121000000E+04     0.0000000000E+00
         0.1122000000E+04     0.0000000000E+00
         0.1123000000E+04     0.0000000000E+00
         0.1124000000E+04     0.0000000000E+00
         0.1125000000E+04     0.0000000000E+00
         0.1126000000E+04     0.0000000000E+00
         0.1127000000E+04     0.0000000000E+00
         0.1128000000E+04     0.0000000000E+00
         0.1129000000E+04     0.0000000000E+00
         0.1130000000E+04     0.0000000000E+00
         0.1131000000E+04     0.0000000000E+00
         0.1132000000E+04     0.0000000000E+00
         0.1133000000E+04     0.0000000000E+00
         0.1134000000E+04     0.0000000000E+00
         0.1135000000E+04     0.0000000000E+00
         0.1136000000E+04     0.0000000000E+00
         0.1137000000E+04     0.0000000000E+00
         0.1138000000E+04     0.0000000000E+00
         0.1139000000E+04     0.0000000000E+00
         0.1140000000E+04     0.0000000000E+00
         0.1141000000E+04     0.0000000000E+00
         0.1142000000E+04     0.0000000000E+00
         0.1143000000E+04     0.0000000000E+00
         0.1144000000E+04     0.0000000000E+00
         0.1145000000E+04     0.0000000000E+00
         0.1146000000E+04     0.0000000000E+00
         0.1147000000E+04     0.0000000000E+00
         0.1148000000E+04     0.0000000000E+00
         0.1149000000E+04     0.0000000000E+00
         0.1150000000E+04     0.0000000000E+00
         0.1151000000E+04     0.0000000000E+00
         0.1152000000E+04     0.0000000000E+00
         0.1153000000E+04     0.0000000000E+00
         0.1154000000E+04     0.0000000000E+00
         0.1155000000E+04     0.0000000000E+00
         0.1156000000E+04     0.0000000000E+00
         0.1157000000E+04     0.0000000000E+00
         0.1158000000E+04     0.0000000000E+00
         0.1159000000E+04     0.0000000000E+00
         0.1160000000E+04     0.0000000000E+00
         0.1161000000E+04     0.0000000000E+00
         0.1162000000E+04     0.0000000000E+00
         0.1163000000E+04     0.0000000000E+00
         0.1164000000E+04     0.0000000000E+00
         0.1165000000E+04     0.0000000000E+00
         0.1166000000E+04     0.0000000000E+00
         0.1167000000E+04     0.0000000000E+00
         0.1168000000E+04     0.0000000000E+00
         0.1169000000E+04     0.0000000000E+00
         0.1170000000E+04     0.0000000000E+00
         0.1171000000E+04     0.0000000000E+00
         0.1172000000E+04     0.0000000000E+00
         0.1173000000E+04     0.0000000000E+00
         0.1174000000E+04     0.0000000000E+00
         0.1175000000E+04     0.0000000000E+00
         0.1176000000E+04     0.0000000000E+00
         0.1177000000E+04     0.0000000000E+00
         0.1178000000E+04     0.0000000000E+00
         0.1179000000E+04     0.0000000000E+00
         0.1180000000E+04     0.0000000000E+00
         0.1181000000E+04     0.0000000000E+00
         0.1182000000E+04     0.0000000000E+00
         0.1183000000E+04     0.0000000000E+00
         0.1184000000E+04     0.0000000000E+00
         0.1185000000E+04     0.0000000000E+00
         0.1186000000E+04     0.0000000000E+00
         0.1187000000E+04     0.0000000000E+00
         0.1188000000E+04     0.0000000000E+00
         0.1189000000E+04     0.0000000000E+00
         0.1190000000E+04     0.0000000000E+00
         0.1191000000E+04     0.0000000000E+00
         0.1192000000E+04     0.0000000000E+00
         0.1193000000E+04     0.0000000000E+00
         0.1194000000E+04     0.0000000000E+00
         0.1195000000E+04     0.0000000000E+00
         0.1196000000E+04     0.0000000000E+00
         0.1197000000E+04     0.0000000000E+00
         0.1198000000E+04     0.0000000000E+00
         0.1199000000E+04     0.0000000000E+00
         0.1200000000E+04     0.0000000000E+00
         0.1201000000E+04     0.0000000000E+00
         0.1202000000E+04     0.0000000000E+00
         0.1203000000E+04     0.0000000000E+00
         0.1204000000E+04     0.0000000000E+00
         0.1205000000E+04     0.0000000000E+00
         0.1206000000E+04     0.0000000000E+00
         0.1207000000E+04     0.0000000000E+00
         0.1208000000E+04     0.0000000000E+00
         0.1209000000E+04     0.0000000000E+00
         0.1210000000E+04     0.0000000000E+00
         0.1211000000E+04     0.0000000000E+00
         0.1212000000E+04     0.0000000000E+00
         0.1213000000E+04     0.0000000000E+00
         0.1214000000E+04     0.0000000000E+00
         0.1215000000E+04     0.0000000000E+00
         0.1216000000E+04     0.0000000000E+00
         0.1217000000E+04     0.0000000000E+00
         0.1218000000E+04     0.0000000000E+00
         0.1219000000E+04     0.0000000000E+00
         0.1220000000E+04     0.0000000000E+00
         0.1221000000E+04     0.0000000000E+00
         0.1222000000E+04     0.0000000000E+00
         0.1223000000E+04     0.0000000000E+00
         0.1224000000E+04     0.0000000000E+00
         0.1225000000E+04     0.0000000000E+00
         0.1226000000E+04     0.0000000000E+00
         0.1227000000E+04     0.0000000000E+00
         0.1228000000E+04     0.0000000000E+00
         0.1229000000E+04     0.0000000000E+00
         0.1230000000E+04     0.0000000000E+00
         0.1231000000E+04     0.0000000000E+00
         0.1232000000E+04     0.0000000000E+00
         0.1233000000E+04     0.0000000000E+00
         0.1234000000E+04     0.0000000000E+00
         0.1235000000E+04     0.0000000000E+00
         0.1236000000E+04     0.0000000000E+00
         0.1237000000E+04     0.0000000000E+00
         0.1238000000E+04     0.0000000000E+00
         0.1239000000E+04     0.0000000000E+00
         0.1240000000E+04     0.0000000000E+00
         0.1241000000E+04     0.0000000000E+00
         0.1242000000E+04     0.0000000000E+00
         0.1243000000E+04     0.0000000000E+00
         0.1244000000E+04     0.0000000000E+00
         0.1245000000E+04     0.0000000000E+00
         0.1246000000E+04     0.0000000000E+00
         0.1247000000E+04     0.0000000000E+00
         0.1248000000E+04     0.0000000000E+00
         0.1249000000E+04     0.0000000000E+00
         0.1250000000E+04     0.0000000000E+00
         0.1251000000E+04     0.0000000000E+00
         0.1252000000E+04     0.0000000000E+00
         0.1253000000E+04     0.0000000000E+00
         0.1254000000E+04     0.0000000000E+00
         0.1255000000E+04     0.0000000000E+00
         0.1256000000E+04     0.0000000000E+00
         0.1257000000E+04     0.0000000000E+00
         0.1258000000E+04     0.0000000000E+00
         0.1259000000E+04     0.0000000000E+00
         0.1260000000E+04     0.0000000000E+00
         0.1261000000E+04     0.0000000000E+00
         0.1262000000E+04     0.0000000000E+00
         0.1263000000E+04     0.0000000000E+00
         0.1264000000E+04     0.0000000000E+00
         0.1265000000E+04     0.0000000000E+00
         0.1266000000E+04     0.0000000000E+00
         0.1267000000E+04     0.0000000000E+00
         0.1268000000E+04     0.0000000000E+00
         0.1269000000E+04     0.0000000000E+00
         0.1270000000E+04     0.0000000000E+00
         0.1271000000E+04     0.0000000000E+00
         0.1272000000E+04     0.0000000000E+00
         0.1273000000E+04     0.0000000000E+00
         0.1274000000E+04     0.0000000000E+00
         0.1275000000E+04     0.0000000000E+00
         0.1276000000E+04     0.0000000000E+00
         0.1277000000E+04     0.0000000000E+00
         0.1278000000E+04     0.0000000000E+00
         0.1279000000E+04     0.0000000000E+00
         0.1280000000E+04     0.0000000000E+00
         0.1281000000E+04     0.0000000000E+00
         0.1282000000E+04     0.0000000000E+00
         0.1283000000E+04     0.0000000000E+00
         0.1284000000E+04     0.0000000000E+00
         0.1285000000E+04     0.0000000000E+00
         0.1286000000E+04     0.0000000000E+00
         0.1287000000E+04     0.0000000000E+00
         0.1288000000E+04     0.0000000000E+00
         0.1289000000E+04     0.0000000000E+00
         0.1290000000E+04     0.0000000000E+00
         0.1291000000E+04     0.0000000000E+00
         0.1292000000E+04     0.0000000000E+00
         0.1293000000E+04     0.0000000000E+00
         0.1294000000E+04     0.0000000000E+00
         0.1295000000E+04     0.0000000000E+00
         0.1296000000E+04     0.0000000000E+00
         0.1297000000E+04     0.0000000000E+00
         0.1298000000E+04     0.0000000000E+00
         0.1299000000E+04     0.0000000000E+00
         0.1300000000E+04     0.0000000000E+00
         0.1301000000E+04     0.0000000000E+00
         0.1302000000E+04     0.0000000000E+00
         0.1303000000E+04     0.0000000000E+00
         0.1304000000E+04     0.0000000000E+00
         0.1305000000E+04     0.0000000000E+00
         0.1306000000E+04     0.0000000000E+00
         0.1307000000E+04     0.0000000000E+00
         0.1308000000E+04     0.0000000000E+00
         0.1309000000E+04     0.0000000000E+00
         0.1310000000E+04     0.0000000000E+00
         0.1311000000E+04     0.0000000000E+00
         0.1312000000E+04     0.0000000000E+00
         0.1313000000E+04     0.0000000000E+00
         0.1314000000E+04     0.0000000000E+00
         0.1315000000E+04     0.0000000000E+00
         0.1316000000E+04     0.0000000000E+00
         0.1317000000E+04     0.0000000000E+00
         0.1318000000E+04     0.0000000000E+00
         0.1319000000E+04     0.0000000000E+00
         0.1320000000E+04     0.0000000000E+00
         0.1321000000E+04     0.0000000000E+00
         0.1322000000E+04     0.0000000000E+00
         0.1323000000E+04     0.0000000000E+00
         0.1324000000E+04     0.0000000000E+00
         0.1325000000E+04     0.0000000000E+00
         0.1326000000E+04     0.0000000000E+00
         0.1327000000E+04     0.0000000000E+00
         0.1328000000E+04     0.0000000000E+00
         0.1329000000E+04     0.0000000000E+00
         0.1330000000E+04     0.0000000000E+00
         0.1331000000E+04     0.0000000000E+00
         0.1332000000E+04     0.0000000000E+00
         0.1333000000E+04     0.0000000000E+00
         0.1334000000E+04     0.0000000000E+00
         0.1335000000E+04     0.0000000000E+00
         0.1336000000E+04     0.0000000000E+00
         0.1337000000E+04     0.0000000000E+00
         0.1338000000E+04     0.0000000000E+00
         0.1339000000E+04     0.0000000000E+00
         0.1340000000E+04     0.0000000000E+00
         0.1341000000E+04     0.0000000000E+00
         0.1342000000E+04     0.0000000000E+00
         0.1343000000E+04     0.0000000000E+00
         0.1344000000E+04     0.0000000000E+00
         0.1345000000E+04     0.0000000000E+00
         0.1346000000E+04     0.0000000000E+00
         0.1347000000E+04     0.0000000000E+00
         0.1348000000E+04     0.0000000000E+00
         0.1349000000E+04     0.0000000000E+00
         0.1350000000E+04     0.0000000000E+00
         0.1351000000E+04     0.0000000000E+00
         0.1352000000E+04     0.0000000000E+00
         0.1353000000E+04     0.0000000000E+00
         0.1354000000E+04     0.0000000000E+00
         0.1355000000E+04     0.0000000000E+00
         0.1356000000E+04     0.0000000000E+00
         0.1357000000E+04     0.0000000000E+00
         0.1358000000E+04     0.0000000000E+00
         0.1359000000E+04     0.2000000000E+04
         0.1360000000E+04     0.2000000000E+04
         0.1361000000E+04     0.2000000000E+04
         0.1362000000E+04     0.2000000000E+04
         0.1363000000E+04     0.2000000000E+04
         0.1364000000E+04     0.2000000000E+04
         0.1365000000E+04     0.2000000000E+04
         0.1366000000E+04     0.2000000000E+04
         0.1367000000E+04     0.2000000000E+04
         0.1368000000E+04     0.2000000000E+04
         0.1369000000E+04     0.1000000000E+04
         0.1370000000E+04     0.1000000000E+04
         0.1371000000E+04     0.1000000000E+04
         0.1372000000E+04     0.1000000000E+04
         0.1373000000E+04     0.1000000000E+04
         0.1374000000E+04     0.1000000000E+04
         0.1375000000E+04     0.1000000000E+04
         0.1376000000E+04     0.1000000000E+04
         0.1377000000E+04     0.1000000000E+04
         0.1378000000E+04     0.1000000000E+04
         0.1379000000E+04     0.1000000000E+04
         0.1380000000E+04     0.1000000000E+04
         0.1381000000E+04     0.1000000000E+04
         0.1382000000E+04     0.1000000000E+04
         0.1383000000E+04     0.1000000000E+04
         0.1384000000E+04     0.1000000000E+04
         0.1385000000E+04     0.1000000000E+04
         0.1386000000E+04     0.1000000000E+04
         0.1387000000E+04     0.1000000000E+04
         0.1388000000E+04     0.1000000000E+04
         0.1389000000E+04     0.1000000000E+04
         0.1390000000E+04     0.1000000000E+04
         0.1391000000E+04     0.1000000000E+04
         0.1392000000E+04     0.1000000000E+04
         0.1393000000E+04     0.1000000000E+04
         0.1394000000E+04     0.1000000000E+04
         0.1395000000E+04     0.1000000000E+04
         0.1396000000E+04     0.1000000000E+04
         0.1397000000E+04     0.1000000000E+04
         0.1398000000E+04     0.1000000000E+04
         0.1399000000E+04     0.1000000000E+04
         0.1400000000E+04     0.1000000000E+04
         0.1401000000E+04     0.1000000000E+04
         0.1402000000E+04     0.1000000000E+04
         0.1403000000E+04     0.1000000000E+04
         0.1404000000E+04     0.1000000000E+04
         0.1405000000E+04     0.1000000000E+04
         0.1406000000E+04     0.1000000000E+04
         0.1407000000E+04     0.1000000000E+04
         0.1408000000E+04     0.1000000000E+04
         0.1409000000E+04     0.1000000000E+04
         0.1410000000E+04     0.1000000000E+04
         0.1411000000E+04     0.1000000000E+04
         0.1412000000E+04     0.1000000000E+04
         0.1413000000E+04     0.1000000000E+04
         0.1414000000E+04     0.1000000000E+04
         0.1415000000E+04     0.1000000000E+04
         0.1416000000E+04     0.1000000000E+04
         0.1417000000E+04     0.1000000000E+04
         0.1418000000E+04     0.1000000000E+04
         0.1419000000E+04     0.1000000000E+04
         0.1420000000E+04     0.1000000000E+04
         0.1421000000E+04     0.1000000000E+04
         0.1422000000E+04     0.1000000000E+04
         0.1423000000E+04     0.1000000000E+04
         0.1424000000E+04     0.1000000000E+04
         0.1425000000E+04     0.1000000000E+04
         0.1426000000E+04     0.1000000000E+04
         0.1427000000E+04     0.1000000000E+04
         0.1428000000E+04     0.1000000000E+04
         0.1429000000E+04     0.1000000000E+04
         0.1430000000E+04     0.1000000000E+04
         0.1431000000E+04     0.0000000000E+00
         0.1432000000E+04     0.0000000000E+00
         0.1433000000E+04     0.0000000000E+00
         0.1434000000E+04     0.0000000000E+00
         0.1435000000E+04     0.0000000000E+00
         0.1436000000E+04     0.0000000000E+00
         0.1437000000E+04     0.0000000000E+00
         0.1438000000E+04     0.0000000000E+00
         0.1439000000E+04     0.0000000000E+00
         0.1440000000E+04     0.0000000000E+00
         0.1441000000E+04     0.0000000000E+00
         0.1442000000E+04     0.0000000000E+00
         0.1443000000E+04     0.0000000000E+00
         0.1444000000E+04     0.0000000000E+00
         0.1445000000E+04     0.0000000000E+00
         0.1446000000E+04     0.0000000000E+00
         0.1447000000E+04     0.0000000000E+00
         0.1448000000E+04     0.0000000000E+00
         0.1449000000E+04     0.0000000000E+00
         0.1450000000E+04     0.0000000000E+00
         0.1451000000E+04     0.0000000000E+00
         0.1452000000E+04     0.0000000000E+00
         0.1453000000E+04     0.0000000000E+00
         0.1454000000E+04     0.0000000000E+00
         0.1455000000E+04     0.0000000000E+00
         0.1456000000E+04     0.0000000000E+00
         0.1457000000E+04     0.0000000000E+00
         0.1458000000E+04     0.0000000000E+00
         0.1459000000E+04     0.0000000000E+00
         0.1460000000E+04     0.0000000000E+00
         0.1461000000E+04     0.0000000000E+00
         0.1462000000E+04     0.0000000000E+00
         0.1463000000E+04     0.0000000000E+00
         0.1464000000E+04     0.0000000000E+00
         0.1465000000E+04     0.0000000000E+00
         0.1466000000E+04     0.0000000000E+00
         0.1467000000E+04     0.0000000000E+00
         0.1468000000E+04     0.0000000000E+00
         0.1469000000E+04     0.0000000000E+00
         0.1470000000E+04     0.0000000000E+00
         0.1471000000E+04     0.0000000000E+00
         0.1472000000E+04     0.0000000000E+00
         0.1473000000E+04     0.0000000000E+00
         0.1474000000E+04     0.0000000000E+00
         0.1475000000E+04     0.0000000000E+00
         0.1476000000E+04     0.0000000000E+00
         0.1477000000E+04     0.0000000000E+00
         0.1478000000E+04     0.0000000000E+00
         0.1479000000E+04     0.0000000000E+00
         0.1480000000E+04     0.0000000000E+00
         0.1481000000E+04     0.0000000000E+00
         0.1482000000E+04     0.0000000000E+00
         0.1483000000E+04     0.0000000000E+00
         0.1484000000E+04     0.0000000000E+00
         0.1485000000E+04     0.0000000000E+00
         0.1486000000E+04     0.0000000000E+00
         0.1487000000E+04     0.0000000000E+00
         0.1488000000E+04     0.0000000000E+00
         0.1489000000E+04     0.0000000000E+00
         0.1490000000E+04     0.0000000000E+00
         0.1491000000E+04     0.0000000000E+00
         0.1492000000E+04     0.0000000000E+00
         0.1493000000E+04     0.0000000000E+00
         0.1494000000E+04     0.0000000000E+00
         0.1495000000E+04     0.0000000000E+00
         0.1496000000E+04     0.0000000000E+00
         0.1497000000E+04     0.0000000000E+00
         0.1498000000E+04     0.0000000000E+00
         0.1499000000E+04     0.0000000000E+00
         0.1500000000E+04     0.0000000000E+00
         0.1501000000E+04     0.0000000000E+00
         0.1502000000E+04     0.0000000000E+00
         0.1503000000E+04     0.0000000000E+00
         0.1504000000E+04     0.0000000000E+00
         0.1505000000E+04     0.0000000000E+00
         0.1506000000E+04     0.0000000000E+00
         0.1507000000E+04     0.0000000000E+00
         0.1508000000E+04     0.0000000000E+00
         0.1509000000E+04     0.0000000000E+00
         0.1510000000E+04     0.0000000000E+00
         0.1511000000E+04     0.0000000000E+00
         0.1512000000E+04     0.0000000000E+00
         0.1513000000E+04     0.0000000000E+00
         0.1514000000E+04     0.0000000000E+00
         0.1515000000E+04     0.0000000000E+00
         0.1516000000E+04     0.0000000000E+00
         0.1517000000E+04     0.0000000000E+00
         0.1518000000E+04     0.0000000000E+00
         0.1519000000E+04     0.0000000000E+00
         0.1520000000E+04     0.0000000000E+00
         0.1521000000E+04     0.0000000000E+00
         0.1522000000E+04     0.0000000000E+00
         0.1523000000E+04     0.0000000000E+00
         0.1524000000E+04     0.0000000000E+00
         0.1525000000E+04     0.0000000000E+00
         0.1526000000E+04     0.0000000000E+00
         0.1527000000E+04     0.0000000000E+00
         0.1528000000E+04     0.0000000000E+00
         0.1529000000E+04     0.0000000000E+00
         0.1530000000E+04     0.0000000000E+00
         0.1531000000E+04     0.0000000000E+00
         0.1532000000E+04     0.0000000000E+00
         0.1533000000E+04     0.0000000000E+00
         0.1534000000E+04     0.0000000000E+00
         0.1535000000E+04     0.0000000000E+00
         0.1536000000E+04     0.0000000000E+00
         0.1537000000E+04     0.0000000000E+00
         0.1538000000E+04     0.0000000000E+00
         0.1539000000E+04     0.0000000000E+00
         0.1540000000E+04     0.0000000000E+00
         0.1541000000E+04     0.0000000000E+00
         0.1542000000E+04     0.0000000000E+00
         0.1543000000E+04     0.0000000000E+00
         0.1544000000E+04     0.0000000000E+00
         0.1545000000E+04     0.0000000000E+00
         0.1546000000E+04     0.0000000000E+00
         0.1547000000E+04     0.0000000000E+00
         0.1548000000E+04     0.0000000000E+00
         0.1549000000E+04     0.0000000000E+00
         0.1550000000E+04     0.0000000000E+00
         0.1551000000E+04     0.0000000000E+00
         0.1552000000E+04     0.0000000000E+00
         0.1553000000E+04     0.0000000000E+00
         0.1554000000E+04     0.0000000000E+00
         0.1555000000E+04     0.0000000000E+00
         0.1556000000E+04     0.0000000000E+00
         0.1557000000E+04     0.0000000000E+00
         0.1558000000E+04     0.0000000000E+00
         0.1559000000E+04     0.0000000000E+00
         0.1560000000E+04     0.0000000000E+00
         0.1561000000E+04     0.0000000000E+00
         0.1562000000E+04     0.0000000000E+00
         0.1563000000E+04     0.0000000000E+00
         0.1564000000E+04     0.0000000000E+00
         0.1565000000E+04     0.0000000000E+00
         0.1566000000E+04     0.0000000000E+00
         0.1567000000E+04     0.0000000000E+00
         0.1568000000E+04     0.0000000000E+00
         0.1569000000E+04     0.0000000000E+00
         0.1570000000E+04     0.0000000000E+00
         0.1571000000E+04     0.0000000000E+00
         0.1572000000E+04     0.0000000000E+00
         0.1573000000E+04     0.0000000000E+00
         0.1574000000E+04     0.0000000000E+00
         0.1575000000E+04     0.0000000000E+00
         0.1576000000E+04     0.0000000000E+00
         0.1577000000E+04     0.0000000000E+00
         0.1578000000E+04     0.0000000000E+00
         0.1579000000E+04     0.0000000000E+00
         0.1580000000E+04     0.0000000000E+00
         0.1581000000E+04     0.0000000000E+00
         0.1582000000E+04     0.0000000000E+00
         0.1583000000E+04     0.0000000000E+00
         0.1584000000E+04     0.0000000000E+00
         0.1585000000E+04     0.0000000000E+00
         0.1586000000E+04     0.0000000000E+00
         0.1587000000E+04     0.0000000000E+00
         0.1588000000E+04     0.0000000000E+00
         0.1589000000E+04     0.0000000000E+00
         0.1590000000E+04     0.0000000000E+00
         0.1591000000E+04     0.0000000000E+00
         0.1592000000E+04     0.0000000000E+00
         0.1593000000E+04     0.0000000000E+00
         0.1594000000E+04     0.0000000000E+00
         0.1595000000E+04     0.0000000000E+00
         0.1596000000E+04     0.0000000000E+00
         0.1597000000E+04     0.0000000000E+00
         0.1598000000E+04     0.0000000000E+00
         0.1599000000E+04     0.0000000000E+00
         0.1600000000E+04     0.0000000000E+00
         0.1601000000E+04     0.0000000000E+00
         0.1602000000E+04     0.0000000000E+00
         0.1603000000E+04     0.0000000000E+00
         0.1604000000E+04     0.0000000000E+00
         0.1605000000E+04     0.0000000000E+00
         0.1606000000E+04     0.0000000000E+00
         0.1607000000E+04     0.0000000000E+00
         0.1608000000E+04     0.0000000000E+00
         0.1609000000E+04     0.0000000000E+00
         0.1610000000E+04     0.0000000000E+00
         0.1611000000E+04     0.0000000000E+00
         0.1612000000E+04     0.0000000000E+00
         0.1613000000E+04     0.0000000000E+00
         0.1614000000E+04     0.0000000000E+00
         0.1615000000E+04     0.0000000000E+00
         0.1616000000E+04     0.0000000000E+00
         0.1617000000E+04     0.0000000000E+00
         0.1618000000E+04     0.0000000000E+00
         0.1619000000E+04     0.0000000000E+00
         0.1620000000E+04     0.0000000000E+00
         0.1621000000E+04     0.0000000000E+00
         0.1622000000E+04     0.0000000000E+00
         0.1623000000E+04     0.0000000000E+00
         0.1624000000E+04     0.0000000000E+00
         0.1625000000E+04     0.0000000000E+00
         0.1626000000E+04     0.0000000000E+00
         0.1627000000E+04     0.0000000000E+00
         0.1628000000E+04     0.0000000000E+00
         0.1629000000E+04     0.0000000000E+00
         0.1630000000E+04     0.0000000000E+00
         0.1631000000E+04     0.0000000000E+00
         0.1632000000E+04     0.0000000000E+00
         0.1633000000E+04     0.0000000000E+00
         0.1634000000E+04     0.0000000000E+00
         0.1635000000E+04     0.0000000000E+00
         0.1636000000E+04     0.0000000000E+00
         0.1637000000E+04     0.0000000000E+00
         0.1638000000E+04     0.0000000000E+00
         0.1639000000E+04     0.0000000000E+00
         0.1640000000E+04     0.0000000000E+00
         0.1641000000E+04     0.0000000000E+00
         0.1642000000E+04     0.0000000000E+00
         0.1643000000E+04     0.0000000000E+00
         0.1644000000E+04     0.0000000000E+00
         0.1645000000E+04     0.0000000000E+00
         0.1646000000E+04     0.0000000000E+00
         0.1647000000E+04     0.0000000000E+00
         0.1648000000E+04     0.0000000000E+00
         0.1649000000E+04     0.0000000000E+00
         0.1650000000E+04     0.0000000000E+00
         0.1651000000E+04     0.0000000000E+00
         0.1652000000E+04     0.0000000000E+00
         0.1653000000E+04     0.0000000000E+00
         0.1654000000E+04     0.0000000000E+00
         0.1655000000E+04     0.0000000000E+00
         0.1656000000E+04     0.0000000000E+00
         0.1657000000E+04     0.0000000000E+00
         0.1658000000E+04     0.0000000000E+00
         0.1659000000E+04     0.0000000000E+00
         0.1660000000E+04     0.0000000000E+00
         0.1661000000E+04     0.0000000000E+00
         0.1662000000E+04     0.0000000000E+00
         0.1663000000E+04     0.0000000000E+00
         0.1664000000E+04     0.0000000000E+00
         0.1665000000E+04     0.0000000000E+00
         0.1666000000E+04     0.0000000000E+00
         0.1667000000E+04     0.0000000000E+00
         0.1668000000E+04     0.0000000000E+00
         0.1669000000E+04     0.0000000000E+00
         0.1670000000E+04     0.0000000000E+00
         0.1671000000E+04     0.0000000000E+00
         0.1672000000E+04     0.0000000000E+00
         0.1673000000E+04     0.0000000000E+00
         0.1674000000E+04     0.0000000000E+00
         0.1675000000E+04     0.0000000000E+00
         0.1676000000E+04     0.0000000000E+00
         0.1677000000E+04     0.0000000000E+00
         0.1678000000E+04     0.0000000000E+00
         0.1679000000E+04     0.0000000000E+00
         0.1680000000E+04     0.0000000000E+00
         0.1681000000E+04     0.0000000000E+00
         0.1682000000E+04     0.0000000000E+00
         0.1683000000E+04     0.0000000000E+00
         0.1684000000E+04     0.0000000000E+00
         0.1685000000E+04     0.0000000000E+00
         0.1686000000E+04     0.0000000000E+00
         0.1687000000E+04     0.0000000000E+00
         0.1688000000E+04     0.0000000000E+00
         0.1689000000E+04     0.0000000000E+00
         0.1690000000E+04     0.0000000000E+00
         0.1691000000E+04     0.0000000000E+00
         0.1692000000E+04     0.0000000000E+00
         0.1693000000E+04     0.0000000000E+00
         0.1694000000E+04     0.0000000000E+00
         0.1695000000E+04     0.0000000000E+00
         0.1696000000E+04     0.0000000000E+00
         0.1697000000E+04     0.0000000000E+00
         0.1698000000E+04     0.0000000000E+00
         0.1699000000E+04     0.0000000000E+00
         0.1700000000E+04     0.0000000000E+00
         0.1701000000E+04     0.0000000000E+00
         0.1702000000E+04     0.0000000000E+00
         0.1703000000E+04     0.0000000000E+00
         0.1704000000E+04     0.0000000000E+00
         0.1705000000E+04     0.0000000000E+00
         0.1706000000E+04     0.0000000000E+00
         0.1707000000E+04     0.0000000000E+00
         0.1708000000E+04     0.0000000000E+00
         0.1709000000E+04     0.0000000000E+00
         0.1710000000E+04     0.0000000000E+00
         0.1711000000E+04     0.0000000000E+00
         0.1712000000E+04     0.0000000000E+00
         0.1713000000E+04     0.0000000000E+00
         0.1714000000E+04     0.0000000000E+00
         0.1715000000E+04     0.0000000000E+00
         0.1716000000E+04     0.0000000000E+00
         0.1717000000E+04     0.0000000000E+00
         0.1718000000E+04     0.0000000000E+00
         0.1719000000E+04     0.0000000000E+00
         0.1720000000E+04     0.0000000000E+00
         0.1721000000E+04     0.0000000000E+00
         0.1722000000E+04     0.0000000000E+00
         0.1723000000E+04     0.0000000000E+00
         0.1724000000E+04     0.2000000000E+04
         0.1725000000E+04     0.2000000000E+04
         0.1726000000E+04     0.2000000000E+04
         0.1727000000E+04     0.2000000000E+04
         0.1728000000E+04     0.2000000000E+04
         0.1729000000E+04     0.2000000000E+04
         0.1730000000E+04     0.2000000000E+04
         0.1731000000E+04     0.2000000000E+04
         0.1732000000E+04     0.2000000000E+04
         0.1733000000E+04     0.2000000000E+04
         0.1734000000E+04     0.1000000000E+04
         0.1735000000E+04     0.1000000000E+04
         0.1736000000E+04     0.1000000000E+04
         0.1737000000E+04     0.1000000000E+04
         0.1738000000E+04     0.1000000000E+04
         0.1739000000E+04     0.1000000000E+04
         0.1740000000E+04     0.1000000000E+04
         0.1741000000E+04     0.1000000000E+04
         0.1742000000E+04     0.1000000000E+04
         0.1743000000E+04     0.1000000000E+04
         0.1744000000E+04     0.1000000000E+04
         0.1745000000E+04     0.1000000000E+04
         0.1746000000E+04     0.1000000000E+04
         0.1747000000E+04     0.1000000000E+04
         0.1748000000E+04     0.1000000000E+04
         0.1749000000E+04     0.1000000000E+04
         0.1750000000E+04     0.1000000000E+04
         0.1751000000E+04     0.1000000000E+04
         0.1752000000E+04     0.1000000000E+04
         0.1753000000E+04     0.1000000000E+04
         0.1754000000E+04     0.1000000000E+04
         0.1755000000E+04     0.1000000000E+04
         0.1756000000E+04     0.1000000000E+04
         0.1757000000E+04     0.1000000000E+04
         0.1758000000E+04     0.1000000000E+04
         0.1759000000E+04     0.1000000000E+04
         0.1760000000E+04     0.1000000000E+04
         0.1761000000E+04     0.1000000000E+04
         0.1762000000E+04     0.1000000000E+04
         0.1763000000E+04     0.1000000000E+04
         0.1764000000E+04     0.1000000000E+04
         0.1765000000E+04     0.1000000000E+04
         0.1766000000E+04     0.1000000000E+04
         0.1767000000E+04     0.1000000000E+04
         0.1768000000E+04     0.1000000000E+04
         0.1769000000E+04     0.1000000000E+04
         0.1770000000E+04     0.1000000000E+04
         0.1771000000E+04     0.1000000000E+04
         0.1772000000E+04     0.1000000000E+04
         0.1773000000E+04     0.1000000000E+04
         0.1774000000E+04     0.1000000000E+04
         0.1775000000E+04     0.1000000000E+04
         0.1776000000E+04     0.1000000000E+04
         0.1777000000E+04     0.1000000000E+04
         0.1778000000E+04     0.1000000000E+04
         0.1779000000E+04     0.1000000000E+04
         0.1780000000E+04     0.1000000000E+04
         0.1781000000E+04     0.1000000000E+04
         0.1782000000E+04     0.1000000000E+04
         0.1783000000E+04     0.1000000000E+04
         0.1784000000E+04     0.1000000000E+04
         0.1785000000E+04     0.1000000000E+04
         0.1786000000E+04     0.1000000000E+04
         0.1787000000E+04     0.1000000000E+04
         0.1788000000E+04     0.1000000000E+04
         0.1789000000E+04     0.1000000000E+04
         0.1790000000E+04     0.1000000000E+04
         0.1791000000E+04     0.1000000000E+04
         0.1792000000E+04     0.1000000000E+04
         0.1793000000E+04     0.1000000000E+04
         0.1794000000E+04     0.1000000000E+04
         0.1795000000E+04     0.1000000000E+04
         0.1796000000E+04     0.0000000000E+00
         0.1797000000E+04     0.0000000000E+00
         0.1798000000E+04     0.0000000000E+00
         0.1799000000E+04     0.0000000000E+00
         0.1800000000E+04     0.0000000000E+00
         0.1801000000E+04     0.0000000000E+00
         0.1802000000E+04     0.0000000000E+00
         0.1803000000E+04     0.0000000000E+00
         0.1804000000E+04     0.0000000000E+00
         0.1805000000E+04     0.0000000000E+00
         0.1806000000E+04     0.0000000000E+00
         0.1807000000E+04     0.0000000000E+00
         0.1808000000E+04     0.0000000000E+00
         0.1809000000E+04     0.0000000000E+00
         0.1810000000E+04     0.0000000000E+00
         0.1811000000E+04     0.0000000000E+00
         0.1812000000E+04     0.0000000000E+00
         0.1813000000E+04     0.0000000000E+00
         0.1814000000E+04     0.0000000000E+00
         0.1815000000E+04     0.0000000000E+00
         0.1816000000E+04     0.0000000000E+00
         0.1817000000E+04     0.0000000000E+00
         0.1818000000E+04     0.0000000000E+00
         0.1819000000E+04     0.0000000000E+00
         0.1820000000E+04     0.0000000000E+00
         0.1821000000E+04     0.0000000000E+00
         0.1822000000E+04     0.0000000000E+00
         0.1823000000E+04     0.0000000000E+00
         0.1824000000E+04     0.0000000000E+00
         0.1825000000E+04     0.0000000000E+00
         0.1826000000E+04     0.0000000000E+00
         0.1827000000E+04     0.0000000000E+00
         0.1828000000E+04     0.0000000000E+00
         0.1829000000E+04     0.0000000000E+00
         0.1830000000E+04     0.0000000000E+00
         0.1831000000E+04     0.0000000000E+00
         0.1832000000E+04     0.0000000000E+00
         0.1833000000E+04     0.0000000000E+00
         0.1834000000E+04     0.0000000000E+00
         0.1835000000E+04     0.0000000000E+00
         0.1836000000E+04     0.0000000000E+00
         0.1837000000E+04     0.0000000000E+00
         0.1838000000E+04     0.0000000000E+00
         0.1839000000E+04     0.0000000000E+00
         0.1840000000E+04     0.0000000000E+00
         0.1841000000E+04     0.0000000000E+00
         0.1842000000E+04     0.0000000000E+00
         0.1843000000E+04     0.0000000000E+00
         0.1844000000E+04     0.0000000000E+00
         0.1845000000E+04     0.0000000000E+00
         0.1846000000E+04     0.0000000000E+00
         0.1847000000E+04     0.0000000000E+00
         0.1848000000E+04     0.0000000000E+00
         0.1849000000E+04     0.0000000000E+00
         0.1850000000E+04     0.0000000000E+00
         0.1851000000E+04     0.0000000000E+00
         0.1852000000E+04     0.0000000000E+00
         0.1853000000E+04     0.0000000000E+00
         0.1854000000E+04     0.0000000000E+00
         0.1855000000E+04     0.0000000000E+00
         0.1856000000E+04     0.0000000000E+00
TABULAR INFLOWS WERE READ FOR SEGMENT     19
FROM FILE UNIT NUMBER     54

          TIMES                    INFLOWS
         0.0000000000E+00     0.0000000000E+00
         0.1000000000E+01     0.0000000000E+00
         0.2000000000E+01     0.0000000000E+00
         0.3000000000E+01     0.0000000000E+00
         0.4000000000E+01     0.0000000000E+00
         0.5000000000E+01     0.0000000000E+00
         0.6000000000E+01     0.0000000000E+00
         0.7000000000E+01     0.0000000000E+00
         0.8000000000E+01     0.0000000000E+00
         0.9000000000E+01     0.0000000000E+00
         0.1000000000E+02     0.0000000000E+00
         0.1100000000E+02     0.0000000000E+00
         0.1200000000E+02     0.0000000000E+00
         0.1300000000E+02     0.0000000000E+00
         0.1400000000E+02     0.0000000000E+00
         0.1500000000E+02     0.0000000000E+00
         0.1600000000E+02     0.0000000000E+00
         0.1700000000E+02     0.0000000000E+00
         0.1800000000E+02     0.0000000000E+00
         0.1900000000E+02     0.0000000000E+00
         0.2000000000E+02     0.0000000000E+00
         0.2100000000E+02     0.0000000000E+00
         0.2200000000E+02     0.0000000000E+00
         0.2300000000E+02     0.0000000000E+00
         0.2400000000E+02     0.0000000000E+00
         0.2500000000E+02     0.0000000000E+00
         0.2600000000E+02     0.0000000000E+00
         0.2700000000E+02     0.0000000000E+00
         0.2800000000E+02     0.0000000000E+00
         0.2900000000E+02     0.0000000000E+00
         0.3000000000E+02     0.0000000000E+00
         0.3100000000E+02     0.0000000000E+00
         0.3200000000E+02     0.0000000000E+00
         0.3300000000E+02     0.0000000000E+00
         0.3400000000E+02     0.0000000000E+00
         0.3500000000E+02     0.0000000000E+00
         0.3600000000E+02     0.0000000000E+00
         0.3700000000E+02     0.0000000000E+00
         0.3800000000E+02     0.0000000000E+00
         0.3900000000E+02     0.0000000000E+00
         0.4000000000E+02     0.0000000000E+00
         0.4100000000E+02     0.0000000000E+00
         0.4200000000E+02     0.0000000000E+00
         0.4300000000E+02     0.0000000000E+00
         0.4400000000E+02     0.0000000000E+00
         0.4500000000E+02     0.0000000000E+00
         0.4600000000E+02     0.0000000000E+00
         0.4700000000E+02     0.0000000000E+00
         0.4800000000E+02     0.0000000000E+00
         0.4900000000E+02     0.0000000000E+00
         0.5000000000E+02     0.0000000000E+00
         0.5100000000E+02     0.0000000000E+00
         0.5200000000E+02     0.0000000000E+00
         0.5300000000E+02     0.0000000000E+00
         0.5400000000E+02     0.0000000000E+00
         0.5500000000E+02     0.0000000000E+00
         0.5600000000E+02     0.0000000000E+00
         0.5700000000E+02     0.0000000000E+00
         0.5800000000E+02     0.0000000000E+00
         0.5900000000E+02     0.0000000000E+00
         0.6000000000E+02     0.0000000000E+00
         0.6100000000E+02     0.0000000000E+00
         0.6200000000E+02     0.0000000000E+00
         0.6300000000E+02     0.0000000000E+00
         0.6400000000E+02     0.0000000000E+00
         0.6500000000E+02     0.0000000000E+00
         0.6600000000E+02     0.0000000000E+00
         0.6700000000E+02     0.0000000000E+00
         0.6800000000E+02     0.0000000000E+00
         0.6900000000E+02     0.0000000000E+00
         0.7000000000E+02     0.0000000000E+00
         0.7100000000E+02     0.0000000000E+00
         0.7200000000E+02     0.0000000000E+00
         0.7300000000E+02     0.0000000000E+00
         0.7400000000E+02     0.0000000000E+00
         0.7500000000E+02     0.0000000000E+00
         0.7600000000E+02     0.0000000000E+00
         0.7700000000E+02     0.0000000000E+00
         0.7800000000E+02     0.0000000000E+00
         0.7900000000E+02     0.0000000000E+00
         0.8000000000E+02     0.0000000000E+00
         0.8100000000E+02     0.0000000000E+00
         0.8200000000E+02     0.0000000000E+00
         0.8300000000E+02     0.0000000000E+00
         0.8400000000E+02     0.0000000000E+00
         0.8500000000E+02     0.0000000000E+00
         0.8600000000E+02     0.0000000000E+00
         0.8700000000E+02     0.0000000000E+00
         0.8800000000E+02     0.0000000000E+00
         0.8900000000E+02     0.0000000000E+00
         0.9000000000E+02     0.0000000000E+00
         0.9100000000E+02     0.0000000000E+00
         0.9200000000E+02     0.0000000000E+00
         0.9300000000E+02     0.0000000000E+00
         0.9400000000E+02     0.0000000000E+00
         0.9500000000E+02     0.0000000000E+00
         0.9600000000E+02     0.0000000000E+00
         0.9700000000E+02     0.0000000000E+00
         0.9800000000E+02     0.0000000000E+00
         0.9900000000E+02     0.0000000000E+00
         0.1000000000E+03     0.0000000000E+00
         0.1010000000E+03     0.0000000000E+00
         0.1020000000E+03     0.0000000000E+00
         0.1030000000E+03     0.0000000000E+00
         0.1040000000E+03     0.0000000000E+00
         0.1050000000E+03     0.0000000000E+00
         0.1060000000E+03     0.0000000000E+00
         0.1070000000E+03     0.0000000000E+00
         0.1080000000E+03     0.0000000000E+00
         0.1090000000E+03     0.0000000000E+00
         0.1100000000E+03     0.0000000000E+00
         0.1110000000E+03     0.0000000000E+00
         0.1120000000E+03     0.0000000000E+00
         0.1130000000E+03     0.0000000000E+00
         0.1140000000E+03     0.0000000000E+00
         0.1150000000E+03     0.0000000000E+00
         0.1160000000E+03     0.0000000000E+00
         0.1170000000E+03     0.0000000000E+00
         0.1180000000E+03     0.0000000000E+00
         0.1190000000E+03     0.0000000000E+00
         0.1200000000E+03     0.0000000000E+00
         0.1210000000E+03     0.0000000000E+00
         0.1220000000E+03     0.0000000000E+00
         0.1230000000E+03     0.0000000000E+00
         0.1240000000E+03     0.0000000000E+00
         0.1250000000E+03     0.0000000000E+00
         0.1260000000E+03     0.0000000000E+00
         0.1270000000E+03     0.0000000000E+00
         0.1280000000E+03     0.0000000000E+00
         0.1290000000E+03     0.0000000000E+00
         0.1300000000E+03     0.0000000000E+00
         0.1310000000E+03     0.0000000000E+00
         0.1320000000E+03     0.0000000000E+00
         0.1330000000E+03     0.0000000000E+00
         0.1340000000E+03     0.0000000000E+00
         0.1350000000E+03     0.0000000000E+00
         0.1360000000E+03     0.0000000000E+00
         0.1370000000E+03     0.0000000000E+00
         0.1380000000E+03     0.0000000000E+00
         0.1390000000E+03     0.0000000000E+00
         0.1400000000E+03     0.0000000000E+00
         0.1410000000E+03     0.0000000000E+00
         0.1420000000E+03     0.0000000000E+00
         0.1430000000E+03     0.0000000000E+00
         0.1440000000E+03     0.0000000000E+00
         0.1450000000E+03     0.0000000000E+00
         0.1460000000E+03     0.0000000000E+00
         0.1470000000E+03     0.0000000000E+00
         0.1480000000E+03     0.0000000000E+00
         0.1490000000E+03     0.0000000000E+00
         0.1500000000E+03     0.0000000000E+00
         0.1510000000E+03     0.0000000000E+00
         0.1520000000E+03     0.0000000000E+00
         0.1530000000E+03     0.0000000000E+00
         0.1540000000E+03     0.0000000000E+00
         0.1550000000E+03     0.0000000000E+00
         0.1560000000E+03     0.0000000000E+00
         0.1570000000E+03     0.0000000000E+00
         0.1580000000E+03     0.0000000000E+00
         0.1590000000E+03     0.0000000000E+00
         0.1600000000E+03     0.0000000000E+00
         0.1610000000E+03     0.0000000000E+00
         0.1620000000E+03     0.0000000000E+00
         0.1630000000E+03     0.0000000000E+00
         0.1640000000E+03     0.0000000000E+00
         0.1650000000E+03     0.0000000000E+00
         0.1660000000E+03     0.0000000000E+00
         0.1670000000E+03     0.0000000000E+00
         0.1680000000E+03     0.0000000000E+00
         0.1690000000E+03     0.0000000000E+00
         0.1700000000E+03     0.0000000000E+00
         0.1710000000E+03     0.0000000000E+00
         0.1720000000E+03     0.0000000000E+00
         0.1730000000E+03     0.0000000000E+00
         0.1740000000E+03     0.0000000000E+00
         0.1750000000E+03     0.0000000000E+00
         0.1760000000E+03     0.0000000000E+00
         0.1770000000E+03     0.0000000000E+00
         0.1780000000E+03     0.0000000000E+00
         0.1790000000E+03     0.0000000000E+00
         0.1800000000E+03     0.0000000000E+00
         0.1810000000E+03     0.0000000000E+00
         0.1820000000E+03     0.0000000000E+00
         0.1830000000E+03     0.0000000000E+00
         0.1840000000E+03     0.0000000000E+00
         0.1850000000E+03     0.0000000000E+00
         0.1860000000E+03     0.0000000000E+00
         0.1870000000E+03     0.0000000000E+00
         0.1880000000E+03     0.0000000000E+00
         0.1890000000E+03     0.0000000000E+00
         0.1900000000E+03     0.0000000000E+00
         0.1910000000E+03     0.0000000000E+00
         0.1920000000E+03     0.0000000000E+00
         0.1930000000E+03     0.0000000000E+00
         0.1940000000E+03     0.0000000000E+00
         0.1950000000E+03     0.0000000000E+00
         0.1960000000E+03     0.0000000000E+00
         0.1970000000E+03     0.0000000000E+00
         0.1980000000E+03     0.0000000000E+00
         0.1990000000E+03     0.0000000000E+00
         0.2000000000E+03     0.0000000000E+00
         0.2010000000E+03     0.0000000000E+00
         0.2020000000E+03     0.0000000000E+00
         0.2030000000E+03     0.0000000000E+00
         0.2040000000E+03     0.0000000000E+00
         0.2050000000E+03     0.0000000000E+00
         0.2060000000E+03     0.0000000000E+00
         0.2070000000E+03     0.0000000000E+00
         0.2080000000E+03     0.0000000000E+00
         0.2090000000E+03     0.0000000000E+00
         0.2100000000E+03     0.0000000000E+00
         0.2110000000E+03     0.0000000000E+00
         0.2120000000E+03     0.0000000000E+00
         0.2130000000E+03     0.0000000000E+00
         0.2140000000E+03     0.0000000000E+00
         0.2150000000E+03     0.0000000000E+00
         0.2160000000E+03     0.0000000000E+00
         0.2170000000E+03     0.0000000000E+00
         0.2180000000E+03     0.0000000000E+00
         0.2190000000E+03     0.0000000000E+00
         0.2200000000E+03     0.0000000000E+00
         0.2210000000E+03     0.0000000000E+00
         0.2220000000E+03     0.0000000000E+00
         0.2230000000E+03     0.0000000000E+00
         0.2240000000E+03     0.0000000000E+00
         0.2250000000E+03     0.0000000000E+00
         0.2260000000E+03     0.0000000000E+00
         0.2270000000E+03     0.0000000000E+00
         0.2280000000E+03     0.0000000000E+00
         0.2290000000E+03     0.0000000000E+00
         0.2300000000E+03     0.0000000000E+00
         0.2310000000E+03     0.0000000000E+00
         0.2320000000E+03     0.0000000000E+00
         0.2330000000E+03     0.0000000000E+00
         0.2340000000E+03     0.0000000000E+00
         0.2350000000E+03     0.0000000000E+00
         0.2360000000E+03     0.0000000000E+00
         0.2370000000E+03     0.0000000000E+00
         0.2380000000E+03     0.0000000000E+00
         0.2390000000E+03     0.0000000000E+00
         0.2400000000E+03     0.0000000000E+00
         0.2410000000E+03     0.0000000000E+00
         0.2420000000E+03     0.0000000000E+00
         0.2430000000E+03     0.0000000000E+00
         0.2440000000E+03     0.0000000000E+00
         0.2450000000E+03     0.0000000000E+00
         0.2460000000E+03     0.0000000000E+00
         0.2470000000E+03     0.0000000000E+00
         0.2480000000E+03     0.0000000000E+00
         0.2490000000E+03     0.0000000000E+00
         0.2500000000E+03     0.0000000000E+00
         0.2510000000E+03     0.0000000000E+00
         0.2520000000E+03     0.0000000000E+00
         0.2530000000E+03     0.0000000000E+00
         0.2540000000E+03     0.0000000000E+00
         0.2550000000E+03     0.0000000000E+00
         0.2560000000E+03     0.0000000000E+00
         0.2570000000E+03     0.0000000000E+00
         0.2580000000E+03     0.0000000000E+00
         0.2590000000E+03     0.0000000000E+00
         0.2600000000E+03     0.0000000000E+00
         0.2610000000E+03     0.0000000000E+00
         0.2620000000E+03     0.0000000000E+00
         0.2630000000E+03     0.2000000000E+04
         0.2640000000E+03     0.2000000000E+04
         0.2650000000E+03     0.2000000000E+04
         0.2660000000E+03     0.2000000000E+04
         0.2670000000E+03     0.2000000000E+04
         0.2680000000E+03     0.2000000000E+04
         0.2690000000E+03     0.2000000000E+04
         0.2700000000E+03     0.2000000000E+04
         0.2710000000E+03     0.2000000000E+04
         0.2720000000E+03     0.2000000000E+04
         0.2730000000E+03     0.1000000000E+04
         0.2740000000E+03     0.1000000000E+04
         0.2750000000E+03     0.1000000000E+04
         0.2760000000E+03     0.1000000000E+04
         0.2770000000E+03     0.1000000000E+04
         0.2780000000E+03     0.1000000000E+04
         0.2790000000E+03     0.1000000000E+04
         0.2800000000E+03     0.1000000000E+04
         0.2810000000E+03     0.1000000000E+04
         0.2820000000E+03     0.1000000000E+04
         0.2830000000E+03     0.1000000000E+04
         0.2840000000E+03     0.1000000000E+04
         0.2850000000E+03     0.1000000000E+04
         0.2860000000E+03     0.1000000000E+04
         0.2870000000E+03     0.1000000000E+04
         0.2880000000E+03     0.1000000000E+04
         0.2890000000E+03     0.1000000000E+04
         0.2900000000E+03     0.1000000000E+04
         0.2910000000E+03     0.1000000000E+04
         0.2920000000E+03     0.1000000000E+04
         0.2930000000E+03     0.1000000000E+04
         0.2940000000E+03     0.1000000000E+04
         0.2950000000E+03     0.1000000000E+04
         0.2960000000E+03     0.1000000000E+04
         0.2970000000E+03     0.1000000000E+04
         0.2980000000E+03     0.1000000000E+04
         0.2990000000E+03     0.1000000000E+04
         0.3000000000E+03     0.1000000000E+04
         0.3010000000E+03     0.1000000000E+04
         0.3020000000E+03     0.1000000000E+04
         0.3030000000E+03     0.1000000000E+04
         0.3040000000E+03     0.1000000000E+04
         0.3050000000E+03     0.1000000000E+04
         0.3060000000E+03     0.1000000000E+04
         0.3070000000E+03     0.1000000000E+04
         0.3080000000E+03     0.1000000000E+04
         0.3090000000E+03     0.1000000000E+04
         0.3100000000E+03     0.1000000000E+04
         0.3110000000E+03     0.1000000000E+04
         0.3120000000E+03     0.1000000000E+04
         0.3130000000E+03     0.1000000000E+04
         0.3140000000E+03     0.1000000000E+04
         0.3150000000E+03     0.1000000000E+04
         0.3160000000E+03     0.1000000000E+04
         0.3170000000E+03     0.1000000000E+04
         0.3180000000E+03     0.1000000000E+04
         0.3190000000E+03     0.1000000000E+04
         0.3200000000E+03     0.1000000000E+04
         0.3210000000E+03     0.1000000000E+04
         0.3220000000E+03     0.1000000000E+04
         0.3230000000E+03     0.1000000000E+04
         0.3240000000E+03     0.1000000000E+04
         0.3250000000E+03     0.1000000000E+04
         0.3260000000E+03     0.1000000000E+04
         0.3270000000E+03     0.1000000000E+04
         0.3280000000E+03     0.1000000000E+04
         0.3290000000E+03     0.1000000000E+04
         0.3300000000E+03     0.1000000000E+04
         0.3310000000E+03     0.1000000000E+04
         0.3320000000E+03     0.1000000000E+04
         0.3330000000E+03     0.1000000000E+04
         0.3340000000E+03     0.1000000000E+04
         0.3350000000E+03     0.0000000000E+00
         0.3360000000E+03     0.0000000000E+00
         0.3370000000E+03     0.0000000000E+00
         0.3380000000E+03     0.0000000000E+00
         0.3390000000E+03     0.0000000000E+00
         0.3400000000E+03     0.0000000000E+00
         0.3410000000E+03     0.0000000000E+00
         0.3420000000E+03     0.0000000000E+00
         0.3430000000E+03     0.0000000000E+00
         0.3440000000E+03     0.0000000000E+00
         0.3450000000E+03     0.0000000000E+00
         0.3460000000E+03     0.0000000000E+00
         0.3470000000E+03     0.0000000000E+00
         0.3480000000E+03     0.0000000000E+00
         0.3490000000E+03     0.0000000000E+00
         0.3500000000E+03     0.0000000000E+00
         0.3510000000E+03     0.0000000000E+00
         0.3520000000E+03     0.0000000000E+00
         0.3530000000E+03     0.0000000000E+00
         0.3540000000E+03     0.0000000000E+00
         0.3550000000E+03     0.0000000000E+00
         0.3560000000E+03     0.0000000000E+00
         0.3570000000E+03     0.0000000000E+00
         0.3580000000E+03     0.0000000000E+00
         0.3590000000E+03     0.0000000000E+00
         0.3600000000E+03     0.0000000000E+00
         0.3610000000E+03     0.0000000000E+00
         0.3620000000E+03     0.0000000000E+00
         0.3630000000E+03     0.0000000000E+00
         0.3640000000E+03     0.0000000000E+00
         0.3650000000E+03     0.0000000000E+00
         0.3660000000E+03     0.0000000000E+00
         0.3670000000E+03     0.0000000000E+00
         0.3680000000E+03     0.0000000000E+00
         0.3690000000E+03     0.0000000000E+00
         0.3700000000E+03     0.0000000000E+00
         0.3710000000E+03     0.0000000000E+00
         0.3720000000E+03     0.0000000000E+00
         0.3730000000E+03     0.0000000000E+00
         0.3740000000E+03     0.0000000000E+00
         0.3750000000E+03     0.0000000000E+00
         0.3760000000E+03     0.0000000000E+00
         0.3770000000E+03     0.0000000000E+00
         0.3780000000E+03     0.0000000000E+00
         0.3790000000E+03     0.0000000000E+00
         0.3800000000E+03     0.0000000000E+00
         0.3810000000E+03     0.0000000000E+00
         0.3820000000E+03     0.0000000000E+00
         0.3830000000E+03     0.0000000000E+00
         0.3840000000E+03     0.0000000000E+00
         0.3850000000E+03     0.0000000000E+00
         0.3860000000E+03     0.0000000000E+00
         0.3870000000E+03     0.0000000000E+00
         0.3880000000E+03     0.0000000000E+00
         0.3890000000E+03     0.0000000000E+00
         0.3900000000E+03     0.0000000000E+00
         0.3910000000E+03     0.0000000000E+00
         0.3920000000E+03     0.0000000000E+00
         0.3930000000E+03     0.0000000000E+00
         0.3940000000E+03     0.0000000000E+00
         0.3950000000E+03     0.0000000000E+00
         0.3960000000E+03     0.0000000000E+00
         0.3970000000E+03     0.0000000000E+00
         0.3980000000E+03     0.0000000000E+00
         0.3990000000E+03     0.0000000000E+00
         0.4000000000E+03     0.0000000000E+00
         0.4010000000E+03     0.0000000000E+00
         0.4020000000E+03     0.0000000000E+00
         0.4030000000E+03     0.0000000000E+00
         0.4040000000E+03     0.0000000000E+00
         0.4050000000E+03     0.0000000000E+00
         0.4060000000E+03     0.0000000000E+00
         0.4070000000E+03     0.0000000000E+00
         0.4080000000E+03     0.0000000000E+00
         0.4090000000E+03     0.0000000000E+00
         0.4100000000E+03     0.0000000000E+00
         0.4110000000E+03     0.0000000000E+00
         0.4120000000E+03     0.0000000000E+00
         0.4130000000E+03     0.0000000000E+00
         0.4140000000E+03     0.0000000000E+00
         0.4150000000E+03     0.0000000000E+00
         0.4160000000E+03     0.0000000000E+00
         0.4170000000E+03     0.0000000000E+00
         0.4180000000E+03     0.0000000000E+00
         0.4190000000E+03     0.0000000000E+00
         0.4200000000E+03     0.0000000000E+00
         0.4210000000E+03     0.0000000000E+00
         0.4220000000E+03     0.0000000000E+00
         0.4230000000E+03     0.0000000000E+00
         0.4240000000E+03     0.0000000000E+00
         0.4250000000E+03     0.0000000000E+00
         0.4260000000E+03     0.0000000000E+00
         0.4270000000E+03     0.0000000000E+00
         0.4280000000E+03     0.0000000000E+00
         0.4290000000E+03     0.0000000000E+00
         0.4300000000E+03     0.0000000000E+00
         0.4310000000E+03     0.0000000000E+00
         0.4320000000E+03     0.0000000000E+00
         0.4330000000E+03     0.0000000000E+00
         0.4340000000E+03     0.0000000000E+00
         0.4350000000E+03     0.0000000000E+00
         0.4360000000E+03     0.0000000000E+00
         0.4370000000E+03     0.0000000000E+00
         0.4380000000E+03     0.0000000000E+00
         0.4390000000E+03     0.0000000000E+00
         0.4400000000E+03     0.0000000000E+00
         0.4410000000E+03     0.0000000000E+00
         0.4420000000E+03     0.0000000000E+00
         0.4430000000E+03     0.0000000000E+00
         0.4440000000E+03     0.0000000000E+00
         0.4450000000E+03     0.0000000000E+00
         0.4460000000E+03     0.0000000000E+00
         0.4470000000E+03     0.0000000000E+00
         0.4480000000E+03     0.0000000000E+00
         0.4490000000E+03     0.0000000000E+00
         0.4500000000E+03     0.0000000000E+00
         0.4510000000E+03     0.0000000000E+00
         0.4520000000E+03     0.0000000000E+00
         0.4530000000E+03     0.0000000000E+00
         0.4540000000E+03     0.0000000000E+00
         0.4550000000E+03     0.0000000000E+00
         0.4560000000E+03     0.0000000000E+00
         0.4570000000E+03     0.0000000000E+00
         0.4580000000E+03     0.0000000000E+00
         0.4590000000E+03     0.0000000000E+00
         0.4600000000E+03     0.0000000000E+00
         0.4610000000E+03     0.0000000000E+00
         0.4620000000E+03     0.0000000000E+00
         0.4630000000E+03     0.0000000000E+00
         0.4640000000E+03     0.0000000000E+00
         0.4650000000E+03     0.0000000000E+00
         0.4660000000E+03     0.0000000000E+00
         0.4670000000E+03     0.0000000000E+00
         0.4680000000E+03     0.0000000000E+00
         0.4690000000E+03     0.0000000000E+00
         0.4700000000E+03     0.0000000000E+00
         0.4710000000E+03     0.0000000000E+00
         0.4720000000E+03     0.0000000000E+00
         0.4730000000E+03     0.0000000000E+00
         0.4740000000E+03     0.0000000000E+00
         0.4750000000E+03     0.0000000000E+00
         0.4760000000E+03     0.0000000000E+00
         0.4770000000E+03     0.0000000000E+00
         0.4780000000E+03     0.0000000000E+00
         0.4790000000E+03     0.0000000000E+00
         0.4800000000E+03     0.0000000000E+00
         0.4810000000E+03     0.0000000000E+00
         0.4820000000E+03     0.0000000000E+00
         0.4830000000E+03     0.0000000000E+00
         0.4840000000E+03     0.0000000000E+00
         0.4850000000E+03     0.0000000000E+00
         0.4860000000E+03     0.0000000000E+00
         0.4870000000E+03     0.0000000000E+00
         0.4880000000E+03     0.0000000000E+00
         0.4890000000E+03     0.0000000000E+00
         0.4900000000E+03     0.0000000000E+00
         0.4910000000E+03     0.0000000000E+00
         0.4920000000E+03     0.0000000000E+00
         0.4930000000E+03     0.0000000000E+00
         0.4940000000E+03     0.0000000000E+00
         0.4950000000E+03     0.0000000000E+00
         0.4960000000E+03     0.0000000000E+00
         0.4970000000E+03     0.0000000000E+00
         0.4980000000E+03     0.0000000000E+00
         0.4990000000E+03     0.0000000000E+00
         0.5000000000E+03     0.0000000000E+00
         0.5010000000E+03     0.0000000000E+00
         0.5020000000E+03     0.0000000000E+00
         0.5030000000E+03     0.0000000000E+00
         0.5040000000E+03     0.0000000000E+00
         0.5050000000E+03     0.0000000000E+00
         0.5060000000E+03     0.0000000000E+00
         0.5070000000E+03     0.0000000000E+00
         0.5080000000E+03     0.0000000000E+00
         0.5090000000E+03     0.0000000000E+00
         0.5100000000E+03     0.0000000000E+00
         0.5110000000E+03     0.0000000000E+00
         0.5120000000E+03     0.0000000000E+00
         0.5130000000E+03     0.0000000000E+00
         0.5140000000E+03     0.0000000000E+00
         0.5150000000E+03     0.0000000000E+00
         0.5160000000E+03     0.0000000000E+00
         0.5170000000E+03     0.0000000000E+00
         0.5180000000E+03     0.0000000000E+00
         0.5190000000E+03     0.0000000000E+00
         0.5200000000E+03     0.0000000000E+00
         0.5210000000E+03     0.0000000000E+00
         0.5220000000E+03     0.0000000000E+00
         0.5230000000E+03     0.0000000000E+00
         0.5240000000E+03     0.0000000000E+00
         0.5250000000E+03     0.0000000000E+00
         0.5260000000E+03     0.0000000000E+00
         0.5270000000E+03     0.0000000000E+00
         0.5280000000E+03     0.0000000000E+00
         0.5290000000E+03     0.0000000000E+00
         0.5300000000E+03     0.0000000000E+00
         0.5310000000E+03     0.0000000000E+00
         0.5320000000E+03     0.0000000000E+00
         0.5330000000E+03     0.0000000000E+00
         0.5340000000E+03     0.0000000000E+00
         0.5350000000E+03     0.0000000000E+00
         0.5360000000E+03     0.0000000000E+00
         0.5370000000E+03     0.0000000000E+00
         0.5380000000E+03     0.0000000000E+00
         0.5390000000E+03     0.0000000000E+00
         0.5400000000E+03     0.0000000000E+00
         0.5410000000E+03     0.0000000000E+00
         0.5420000000E+03     0.0000000000E+00
         0.5430000000E+03     0.0000000000E+00
         0.5440000000E+03     0.0000000000E+00
         0.5450000000E+03     0.0000000000E+00
         0.5460000000E+03     0.0000000000E+00
         0.5470000000E+03     0.0000000000E+00
         0.5480000000E+03     0.0000000000E+00
         0.5490000000E+03     0.0000000000E+00
         0.5500000000E+03     0.0000000000E+00
         0.5510000000E+03     0.0000000000E+00
         0.5520000000E+03     0.0000000000E+00
         0.5530000000E+03     0.0000000000E+00
         0.5540000000E+03     0.0000000000E+00
         0.5550000000E+03     0.0000000000E+00
         0.5560000000E+03     0.0000000000E+00
         0.5570000000E+03     0.0000000000E+00
         0.5580000000E+03     0.0000000000E+00
         0.5590000000E+03     0.0000000000E+00
         0.5600000000E+03     0.0000000000E+00
         0.5610000000E+03     0.0000000000E+00
         0.5620000000E+03     0.0000000000E+00
         0.5630000000E+03     0.0000000000E+00
         0.5640000000E+03     0.0000000000E+00
         0.5650000000E+03     0.0000000000E+00
         0.5660000000E+03     0.0000000000E+00
         0.5670000000E+03     0.0000000000E+00
         0.5680000000E+03     0.0000000000E+00
         0.5690000000E+03     0.0000000000E+00
         0.5700000000E+03     0.0000000000E+00
         0.5710000000E+03     0.0000000000E+00
         0.5720000000E+03     0.0000000000E+00
         0.5730000000E+03     0.0000000000E+00
         0.5740000000E+03     0.0000000000E+00
         0.5750000000E+03     0.0000000000E+00
         0.5760000000E+03     0.0000000000E+00
         0.5770000000E+03     0.0000000000E+00
         0.5780000000E+03     0.0000000000E+00
         0.5790000000E+03     0.0000000000E+00
         0.5800000000E+03     0.0000000000E+00
         0.5810000000E+03     0.0000000000E+00
         0.5820000000E+03     0.0000000000E+00
         0.5830000000E+03     0.0000000000E+00
         0.5840000000E+03     0.0000000000E+00
         0.5850000000E+03     0.0000000000E+00
         0.5860000000E+03     0.0000000000E+00
         0.5870000000E+03     0.0000000000E+00
         0.5880000000E+03     0.0000000000E+00
         0.5890000000E+03     0.0000000000E+00
         0.5900000000E+03     0.0000000000E+00
         0.5910000000E+03     0.0000000000E+00
         0.5920000000E+03     0.0000000000E+00
         0.5930000000E+03     0.0000000000E+00
         0.5940000000E+03     0.0000000000E+00
         0.5950000000E+03     0.0000000000E+00
         0.5960000000E+03     0.0000000000E+00
         0.5970000000E+03     0.0000000000E+00
         0.5980000000E+03     0.0000000000E+00
         0.5990000000E+03     0.0000000000E+00
         0.6000000000E+03     0.0000000000E+00
         0.6010000000E+03     0.0000000000E+00
         0.6020000000E+03     0.0000000000E+00
         0.6030000000E+03     0.0000000000E+00
         0.6040000000E+03     0.0000000000E+00
         0.6050000000E+03     0.0000000000E+00
         0.6060000000E+03     0.0000000000E+00
         0.6070000000E+03     0.0000000000E+00
         0.6080000000E+03     0.0000000000E+00
         0.6090000000E+03     0.0000000000E+00
         0.6100000000E+03     0.0000000000E+00
         0.6110000000E+03     0.0000000000E+00
         0.6120000000E+03     0.0000000000E+00
         0.6130000000E+03     0.0000000000E+00
         0.6140000000E+03     0.0000000000E+00
         0.6150000000E+03     0.0000000000E+00
         0.6160000000E+03     0.0000000000E+00
         0.6170000000E+03     0.0000000000E+00
         0.6180000000E+03     0.0000000000E+00
         0.6190000000E+03     0.0000000000E+00
         0.6200000000E+03     0.0000000000E+00
         0.6210000000E+03     0.0000000000E+00
         0.6220000000E+03     0.0000000000E+00
         0.6230000000E+03     0.0000000000E+00
         0.6240000000E+03     0.0000000000E+00
         0.6250000000E+03     0.0000000000E+00
         0.6260000000E+03     0.0000000000E+00
         0.6270000000E+03     0.0000000000E+00
         0.6280000000E+03     0.0000000000E+00
         0.6290000000E+03     0.2000000000E+04
         0.6300000000E+03     0.2000000000E+04
         0.6310000000E+03     0.2000000000E+04
         0.6320000000E+03     0.2000000000E+04
         0.6330000000E+03     0.2000000000E+04
         0.6340000000E+03     0.2000000000E+04
         0.6350000000E+03     0.2000000000E+04
         0.6360000000E+03     0.2000000000E+04
         0.6370000000E+03     0.2000000000E+04
         0.6380000000E+03     0.2000000000E+04
         0.6390000000E+03     0.1000000000E+04
         0.6400000000E+03     0.1000000000E+04
         0.6410000000E+03     0.1000000000E+04
         0.6420000000E+03     0.1000000000E+04
         0.6430000000E+03     0.1000000000E+04
         0.6440000000E+03     0.1000000000E+04
         0.6450000000E+03     0.1000000000E+04
         0.6460000000E+03     0.1000000000E+04
         0.6470000000E+03     0.1000000000E+04
         0.6480000000E+03     0.1000000000E+04
         0.6490000000E+03     0.1000000000E+04
         0.6500000000E+03     0.1000000000E+04
         0.6510000000E+03     0.1000000000E+04
         0.6520000000E+03     0.1000000000E+04
         0.6530000000E+03     0.1000000000E+04
         0.6540000000E+03     0.1000000000E+04
         0.6550000000E+03     0.1000000000E+04
         0.6560000000E+03     0.1000000000E+04
         0.6570000000E+03     0.1000000000E+04
         0.6580000000E+03     0.1000000000E+04
         0.6590000000E+03     0.1000000000E+04
         0.6600000000E+03     0.1000000000E+04
         0.6610000000E+03     0.1000000000E+04
         0.6620000000E+03     0.1000000000E+04
         0.6630000000E+03     0.1000000000E+04
         0.6640000000E+03     0.1000000000E+04
         0.6650000000E+03     0.1000000000E+04
         0.6660000000E+03     0.1000000000E+04
         0.6670000000E+03     0.1000000000E+04
         0.6680000000E+03     0.1000000000E+04
         0.6690000000E+03     0.1000000000E+04
         0.6700000000E+03     0.1000000000E+04
         0.6710000000E+03     0.1000000000E+04
         0.6720000000E+03     0.1000000000E+04
         0.6730000000E+03     0.1000000000E+04
         0.6740000000E+03     0.1000000000E+04
         0.6750000000E+03     0.1000000000E+04
         0.6760000000E+03     0.1000000000E+04
         0.6770000000E+03     0.1000000000E+04
         0.6780000000E+03     0.1000000000E+04
         0.6790000000E+03     0.1000000000E+04
         0.6800000000E+03     0.1000000000E+04
         0.6810000000E+03     0.1000000000E+04
         0.6820000000E+03     0.1000000000E+04
         0.6830000000E+03     0.1000000000E+04
         0.6840000000E+03     0.1000000000E+04
         0.6850000000E+03     0.1000000000E+04
         0.6860000000E+03     0.1000000000E+04
         0.6870000000E+03     0.1000000000E+04
         0.6880000000E+03     0.1000000000E+04
         0.6890000000E+03     0.1000000000E+04
         0.6900000000E+03     0.1000000000E+04
         0.6910000000E+03     0.1000000000E+04
         0.6920000000E+03     0.1000000000E+04
         0.6930000000E+03     0.1000000000E+04
         0.6940000000E+03     0.1000000000E+04
         0.6950000000E+03     0.1000000000E+04
         0.6960000000E+03     0.1000000000E+04
         0.6970000000E+03     0.1000000000E+04
         0.6980000000E+03     0.1000000000E+04
         0.6990000000E+03     0.1000000000E+04
         0.7000000000E+03     0.1000000000E+04
         0.7010000000E+03     0.0000000000E+00
         0.7020000000E+03     0.0000000000E+00
         0.7030000000E+03     0.0000000000E+00
         0.7040000000E+03     0.0000000000E+00
         0.7050000000E+03     0.0000000000E+00
         0.7060000000E+03     0.0000000000E+00
         0.7070000000E+03     0.0000000000E+00
         0.7080000000E+03     0.0000000000E+00
         0.7090000000E+03     0.0000000000E+00
         0.7100000000E+03     0.0000000000E+00
         0.7110000000E+03     0.0000000000E+00
         0.7120000000E+03     0.0000000000E+00
         0.7130000000E+03     0.0000000000E+00
         0.7140000000E+03     0.0000000000E+00
         0.7150000000E+03     0.0000000000E+00
         0.7160000000E+03     0.0000000000E+00
         0.7170000000E+03     0.0000000000E+00
         0.7180000000E+03     0.0000000000E+00
         0.7190000000E+03     0.0000000000E+00
         0.7200000000E+03     0.0000000000E+00
         0.7210000000E+03     0.0000000000E+00
         0.7220000000E+03     0.0000000000E+00
         0.7230000000E+03     0.0000000000E+00
         0.7240000000E+03     0.0000000000E+00
         0.7250000000E+03     0.0000000000E+00
         0.7260000000E+03     0.0000000000E+00
         0.7270000000E+03     0.0000000000E+00
         0.7280000000E+03     0.0000000000E+00
         0.7290000000E+03     0.0000000000E+00
         0.7300000000E+03     0.0000000000E+00
         0.7310000000E+03     0.0000000000E+00
         0.7320000000E+03     0.0000000000E+00
         0.7330000000E+03     0.0000000000E+00
         0.7340000000E+03     0.0000000000E+00
         0.7350000000E+03     0.0000000000E+00
         0.7360000000E+03     0.0000000000E+00
         0.7370000000E+03     0.0000000000E+00
         0.7380000000E+03     0.0000000000E+00
         0.7390000000E+03     0.0000000000E+00
         0.7400000000E+03     0.0000000000E+00
         0.7410000000E+03     0.0000000000E+00
         0.7420000000E+03     0.0000000000E+00
         0.7430000000E+03     0.0000000000E+00
         0.7440000000E+03     0.0000000000E+00
         0.7450000000E+03     0.0000000000E+00
         0.7460000000E+03     0.0000000000E+00
         0.7470000000E+03     0.0000000000E+00
         0.7480000000E+03     0.0000000000E+00
         0.7490000000E+03     0.0000000000E+00
         0.7500000000E+03     0.0000000000E+00
         0.7510000000E+03     0.0000000000E+00
         0.7520000000E+03     0.0000000000E+00
         0.7530000000E+03     0.0000000000E+00
         0.7540000000E+03     0.0000000000E+00
         0.7550000000E+03     0.0000000000E+00
         0.7560000000E+03     0.0000000000E+00
         0.7570000000E+03     0.0000000000E+00
         0.7580000000E+03     0.0000000000E+00
         0.7590000000E+03     0.0000000000E+00
         0.7600000000E+03     0.0000000000E+00
         0.7610000000E+03     0.0000000000E+00
         0.7620000000E+03     0.0000000000E+00
         0.7630000000E+03     0.0000000000E+00
         0.7640000000E+03     0.0000000000E+00
         0.7650000000E+03     0.0000000000E+00
         0.7660000000E+03     0.0000000000E+00
         0.7670000000E+03     0.0000000000E+00
         0.7680000000E+03     0.0000000000E+00
         0.7690000000E+03     0.0000000000E+00
         0.7700000000E+03     0.0000000000E+00
         0.7710000000E+03     0.0000000000E+00
         0.7720000000E+03     0.0000000000E+00
         0.7730000000E+03     0.0000000000E+00
         0.7740000000E+03     0.0000000000E+00
         0.7750000000E+03     0.0000000000E+00
         0.7760000000E+03     0.0000000000E+00
         0.7770000000E+03     0.0000000000E+00
         0.7780000000E+03     0.0000000000E+00
         0.7790000000E+03     0.0000000000E+00
         0.7800000000E+03     0.0000000000E+00
         0.7810000000E+03     0.0000000000E+00
         0.7820000000E+03     0.0000000000E+00
         0.7830000000E+03     0.0000000000E+00
         0.7840000000E+03     0.0000000000E+00
         0.7850000000E+03     0.0000000000E+00
         0.7860000000E+03     0.0000000000E+00
         0.7870000000E+03     0.0000000000E+00
         0.7880000000E+03     0.0000000000E+00
         0.7890000000E+03     0.0000000000E+00
         0.7900000000E+03     0.0000000000E+00
         0.7910000000E+03     0.0000000000E+00
         0.7920000000E+03     0.0000000000E+00
         0.7930000000E+03     0.0000000000E+00
         0.7940000000E+03     0.0000000000E+00
         0.7950000000E+03     0.0000000000E+00
         0.7960000000E+03     0.0000000000E+00
         0.7970000000E+03     0.0000000000E+00
         0.7980000000E+03     0.0000000000E+00
         0.7990000000E+03     0.0000000000E+00
         0.8000000000E+03     0.0000000000E+00
         0.8010000000E+03     0.0000000000E+00
         0.8020000000E+03     0.0000000000E+00
         0.8030000000E+03     0.0000000000E+00
         0.8040000000E+03     0.0000000000E+00
         0.8050000000E+03     0.0000000000E+00
         0.8060000000E+03     0.0000000000E+00
         0.8070000000E+03     0.0000000000E+00
         0.8080000000E+03     0.0000000000E+00
         0.8090000000E+03     0.0000000000E+00
         0.8100000000E+03     0.0000000000E+00
         0.8110000000E+03     0.0000000000E+00
         0.8120000000E+03     0.0000000000E+00
         0.8130000000E+03     0.0000000000E+00
         0.8140000000E+03     0.0000000000E+00
         0.8150000000E+03     0.0000000000E+00
         0.8160000000E+03     0.0000000000E+00
         0.8170000000E+03     0.0000000000E+00
         0.8180000000E+03     0.0000000000E+00
         0.8190000000E+03     0.0000000000E+00
         0.8200000000E+03     0.0000000000E+00
         0.8210000000E+03     0.0000000000E+00
         0.8220000000E+03     0.0000000000E+00
         0.8230000000E+03     0.0000000000E+00
         0.8240000000E+03     0.0000000000E+00
         0.8250000000E+03     0.0000000000E+00
         0.8260000000E+03     0.0000000000E+00
         0.8270000000E+03     0.0000000000E+00
         0.8280000000E+03     0.0000000000E+00
         0.8290000000E+03     0.0000000000E+00
         0.8300000000E+03     0.0000000000E+00
         0.8310000000E+03     0.0000000000E+00
         0.8320000000E+03     0.0000000000E+00
         0.8330000000E+03     0.0000000000E+00
         0.8340000000E+03     0.0000000000E+00
         0.8350000000E+03     0.0000000000E+00
         0.8360000000E+03     0.0000000000E+00
         0.8370000000E+03     0.0000000000E+00
         0.8380000000E+03     0.0000000000E+00
         0.8390000000E+03     0.0000000000E+00
         0.8400000000E+03     0.0000000000E+00
         0.8410000000E+03     0.0000000000E+00
         0.8420000000E+03     0.0000000000E+00
         0.8430000000E+03     0.0000000000E+00
         0.8440000000E+03     0.0000000000E+00
         0.8450000000E+03     0.0000000000E+00
         0.8460000000E+03     0.0000000000E+00
         0.8470000000E+03     0.0000000000E+00
         0.8480000000E+03     0.0000000000E+00
         0.8490000000E+03     0.0000000000E+00
         0.8500000000E+03     0.0000000000E+00
         0.8510000000E+03     0.0000000000E+00
         0.8520000000E+03     0.0000000000E+00
         0.8530000000E+03     0.0000000000E+00
         0.8540000000E+03     0.0000000000E+00
         0.8550000000E+03     0.0000000000E+00
         0.8560000000E+03     0.0000000000E+00
         0.8570000000E+03     0.0000000000E+00
         0.8580000000E+03     0.0000000000E+00
         0.8590000000E+03     0.0000000000E+00
         0.8600000000E+03     0.0000000000E+00
         0.8610000000E+03     0.0000000000E+00
         0.8620000000E+03     0.0000000000E+00
         0.8630000000E+03     0.0000000000E+00
         0.8640000000E+03     0.0000000000E+00
         0.8650000000E+03     0.0000000000E+00
         0.8660000000E+03     0.0000000000E+00
         0.8670000000E+03     0.0000000000E+00
         0.8680000000E+03     0.0000000000E+00
         0.8690000000E+03     0.0000000000E+00
         0.8700000000E+03     0.0000000000E+00
         0.8710000000E+03     0.0000000000E+00
         0.8720000000E+03     0.0000000000E+00
         0.8730000000E+03     0.0000000000E+00
         0.8740000000E+03     0.0000000000E+00
         0.8750000000E+03     0.0000000000E+00
         0.8760000000E+03     0.0000000000E+00
         0.8770000000E+03     0.0000000000E+00
         0.8780000000E+03     0.0000000000E+00
         0.8790000000E+03     0.0000000000E+00
         0.8800000000E+03     0.0000000000E+00
         0.8810000000E+03     0.0000000000E+00
         0.8820000000E+03     0.0000000000E+00
         0.8830000000E+03     0.0000000000E+00
         0.8840000000E+03     0.0000000000E+00
         0.8850000000E+03     0.0000000000E+00
         0.8860000000E+03     0.0000000000E+00
         0.8870000000E+03     0.0000000000E+00
         0.8880000000E+03     0.0000000000E+00
         0.8890000000E+03     0.0000000000E+00
         0.8900000000E+03     0.0000000000E+00
         0.8910000000E+03     0.0000000000E+00
         0.8920000000E+03     0.0000000000E+00
         0.8930000000E+03     0.0000000000E+00
         0.8940000000E+03     0.0000000000E+00
         0.8950000000E+03     0.0000000000E+00
         0.8960000000E+03     0.0000000000E+00
         0.8970000000E+03     0.0000000000E+00
         0.8980000000E+03     0.0000000000E+00
         0.8990000000E+03     0.0000000000E+00
         0.9000000000E+03     0.0000000000E+00
         0.9010000000E+03     0.0000000000E+00
         0.9020000000E+03     0.0000000000E+00
         0.9030000000E+03     0.0000000000E+00
         0.9040000000E+03     0.0000000000E+00
         0.9050000000E+03     0.0000000000E+00
         0.9060000000E+03     0.0000000000E+00
         0.9070000000E+03     0.0000000000E+00
         0.9080000000E+03     0.0000000000E+00
         0.9090000000E+03     0.0000000000E+00
         0.9100000000E+03     0.0000000000E+00
         0.9110000000E+03     0.0000000000E+00
         0.9120000000E+03     0.0000000000E+00
         0.9130000000E+03     0.0000000000E+00
         0.9140000000E+03     0.0000000000E+00
         0.9150000000E+03     0.0000000000E+00
         0.9160000000E+03     0.0000000000E+00
         0.9170000000E+03     0.0000000000E+00
         0.9180000000E+03     0.0000000000E+00
         0.9190000000E+03     0.0000000000E+00
         0.9200000000E+03     0.0000000000E+00
         0.9210000000E+03     0.0000000000E+00
         0.9220000000E+03     0.0000000000E+00
         0.9230000000E+03     0.0000000000E+00
         0.9240000000E+03     0.0000000000E+00
         0.9250000000E+03     0.0000000000E+00
         0.9260000000E+03     0.0000000000E+00
         0.9270000000E+03     0.0000000000E+00
         0.9280000000E+03     0.0000000000E+00
         0.9290000000E+03     0.0000000000E+00
         0.9300000000E+03     0.0000000000E+00
         0.9310000000E+03     0.0000000000E+00
         0.9320000000E+03     0.0000000000E+00
         0.9330000000E+03     0.0000000000E+00
         0.9340000000E+03     0.0000000000E+00
         0.9350000000E+03     0.0000000000E+00
         0.9360000000E+03     0.0000000000E+00
         0.9370000000E+03     0.0000000000E+00
         0.9380000000E+03     0.0000000000E+00
         0.9390000000E+03     0.0000000000E+00
         0.9400000000E+03     0.0000000000E+00
         0.9410000000E+03     0.0000000000E+00
         0.9420000000E+03     0.0000000000E+00
         0.9430000000E+03     0.0000000000E+00
         0.9440000000E+03     0.0000000000E+00
         0.9450000000E+03     0.0000000000E+00
         0.9460000000E+03     0.0000000000E+00
         0.9470000000E+03     0.0000000000E+00
         0.9480000000E+03     0.0000000000E+00
         0.9490000000E+03     0.0000000000E+00
         0.9500000000E+03     0.0000000000E+00
         0.9510000000E+03     0.0000000000E+00
         0.9520000000E+03     0.0000000000E+00
         0.9530000000E+03     0.0000000000E+00
         0.9540000000E+03     0.0000000000E+00
         0.9550000000E+03     0.0000000000E+00
         0.9560000000E+03     0.0000000000E+00
         0.9570000000E+03     0.0000000000E+00
         0.9580000000E+03     0.0000000000E+00
         0.9590000000E+03     0.0000000000E+00
         0.9600000000E+03     0.0000000000E+00
         0.9610000000E+03     0.0000000000E+00
         0.9620000000E+03     0.0000000000E+00
         0.9630000000E+03     0.0000000000E+00
         0.9640000000E+03     0.0000000000E+00
         0.9650000000E+03     0.0000000000E+00
         0.9660000000E+03     0.0000000000E+00
         0.9670000000E+03     0.0000000000E+00
         0.9680000000E+03     0.0000000000E+00
         0.9690000000E+03     0.0000000000E+00
         0.9700000000E+03     0.0000000000E+00
         0.9710000000E+03     0.0000000000E+00
         0.9720000000E+03     0.0000000000E+00
         0.9730000000E+03     0.0000000000E+00
         0.9740000000E+03     0.0000000000E+00
         0.9750000000E+03     0.0000000000E+00
         0.9760000000E+03     0.0000000000E+00
         0.9770000000E+03     0.0000000000E+00
         0.9780000000E+03     0.0000000000E+00
         0.9790000000E+03     0.0000000000E+00
         0.9800000000E+03     0.0000000000E+00
         0.9810000000E+03     0.0000000000E+00
         0.9820000000E+03     0.0000000000E+00
         0.9830000000E+03     0.0000000000E+00
         0.9840000000E+03     0.0000000000E+00
         0.9850000000E+03     0.0000000000E+00
         0.9860000000E+03     0.0000000000E+00
         0.9870000000E+03     0.0000000000E+00
         0.9880000000E+03     0.0000000000E+00
         0.9890000000E+03     0.0000000000E+00
         0.9900000000E+03     0.0000000000E+00
         0.9910000000E+03     0.0000000000E+00
         0.9920000000E+03     0.0000000000E+00
         0.9930000000E+03     0.0000000000E+00
         0.9940000000E+03     0.2000000000E+04
         0.9950000000E+03     0.2000000000E+04
         0.9960000000E+03     0.2000000000E+04
         0.9970000000E+03     0.2000000000E+04
         0.9980000000E+03     0.2000000000E+04
         0.9990000000E+03     0.2000000000E+04
         0.1000000000E+04     0.2000000000E+04
         0.1001000000E+04     0.2000000000E+04
         0.1002000000E+04     0.2000000000E+04
         0.1003000000E+04     0.2000000000E+04
         0.1004000000E+04     0.1000000000E+04
         0.1005000000E+04     0.1000000000E+04
         0.1006000000E+04     0.1000000000E+04
         0.1007000000E+04     0.1000000000E+04
         0.1008000000E+04     0.1000000000E+04
         0.1009000000E+04     0.1000000000E+04
         0.1010000000E+04     0.1000000000E+04
         0.1011000000E+04     0.1000000000E+04
         0.1012000000E+04     0.1000000000E+04
         0.1013000000E+04     0.1000000000E+04
         0.1014000000E+04     0.1000000000E+04
         0.1015000000E+04     0.1000000000E+04
         0.1016000000E+04     0.1000000000E+04
         0.1017000000E+04     0.1000000000E+04
         0.1018000000E+04     0.1000000000E+04
         0.1019000000E+04     0.1000000000E+04
         0.1020000000E+04     0.1000000000E+04
         0.1021000000E+04     0.1000000000E+04
         0.1022000000E+04     0.1000000000E+04
         0.1023000000E+04     0.1000000000E+04
         0.1024000000E+04     0.1000000000E+04
         0.1025000000E+04     0.1000000000E+04
         0.1026000000E+04     0.1000000000E+04
         0.1027000000E+04     0.1000000000E+04
         0.1028000000E+04     0.1000000000E+04
         0.1029000000E+04     0.1000000000E+04
         0.1030000000E+04     0.1000000000E+04
         0.1031000000E+04     0.1000000000E+04
         0.1032000000E+04     0.1000000000E+04
         0.1033000000E+04     0.1000000000E+04
         0.1034000000E+04     0.1000000000E+04
         0.1035000000E+04     0.1000000000E+04
         0.1036000000E+04     0.1000000000E+04
         0.1037000000E+04     0.1000000000E+04
         0.1038000000E+04     0.1000000000E+04
         0.1039000000E+04     0.1000000000E+04
         0.1040000000E+04     0.1000000000E+04
         0.1041000000E+04     0.1000000000E+04
         0.1042000000E+04     0.1000000000E+04
         0.1043000000E+04     0.1000000000E+04
         0.1044000000E+04     0.1000000000E+04
         0.1045000000E+04     0.1000000000E+04
         0.1046000000E+04     0.1000000000E+04
         0.1047000000E+04     0.1000000000E+04
         0.1048000000E+04     0.1000000000E+04
         0.1049000000E+04     0.1000000000E+04
         0.1050000000E+04     0.1000000000E+04
         0.1051000000E+04     0.1000000000E+04
         0.1052000000E+04     0.1000000000E+04
         0.1053000000E+04     0.1000000000E+04
         0.1054000000E+04     0.1000000000E+04
         0.1055000000E+04     0.1000000000E+04
         0.1056000000E+04     0.1000000000E+04
         0.1057000000E+04     0.1000000000E+04
         0.1058000000E+04     0.1000000000E+04
         0.1059000000E+04     0.1000000000E+04
         0.1060000000E+04     0.1000000000E+04
         0.1061000000E+04     0.1000000000E+04
         0.1062000000E+04     0.1000000000E+04
         0.1063000000E+04     0.1000000000E+04
         0.1064000000E+04     0.1000000000E+04
         0.1065000000E+04     0.1000000000E+04
         0.1066000000E+04     0.0000000000E+00
         0.1067000000E+04     0.0000000000E+00
         0.1068000000E+04     0.0000000000E+00
         0.1069000000E+04     0.0000000000E+00
         0.1070000000E+04     0.0000000000E+00
         0.1071000000E+04     0.0000000000E+00
         0.1072000000E+04     0.0000000000E+00
         0.1073000000E+04     0.0000000000E+00
         0.1074000000E+04     0.0000000000E+00
         0.1075000000E+04     0.0000000000E+00
         0.1076000000E+04     0.0000000000E+00
         0.1077000000E+04     0.0000000000E+00
         0.1078000000E+04     0.0000000000E+00
         0.1079000000E+04     0.0000000000E+00
         0.1080000000E+04     0.0000000000E+00
         0.1081000000E+04     0.0000000000E+00
         0.1082000000E+04     0.0000000000E+00
         0.1083000000E+04     0.0000000000E+00
         0.1084000000E+04     0.0000000000E+00
         0.1085000000E+04     0.0000000000E+00
         0.1086000000E+04     0.0000000000E+00
         0.1087000000E+04     0.0000000000E+00
         0.1088000000E+04     0.0000000000E+00
         0.1089000000E+04     0.0000000000E+00
         0.1090000000E+04     0.0000000000E+00
         0.1091000000E+04     0.0000000000E+00
         0.1092000000E+04     0.0000000000E+00
         0.1093000000E+04     0.0000000000E+00
         0.1094000000E+04     0.0000000000E+00
         0.1095000000E+04     0.0000000000E+00
         0.1096000000E+04     0.0000000000E+00
         0.1097000000E+04     0.0000000000E+00
         0.1098000000E+04     0.0000000000E+00
         0.1099000000E+04     0.0000000000E+00
         0.1100000000E+04     0.0000000000E+00
         0.1101000000E+04     0.0000000000E+00
         0.1102000000E+04     0.0000000000E+00
         0.1103000000E+04     0.0000000000E+00
         0.1104000000E+04     0.0000000000E+00
         0.1105000000E+04     0.0000000000E+00
         0.1106000000E+04     0.0000000000E+00
         0.1107000000E+04     0.0000000000E+00
         0.1108000000E+04     0.0000000000E+00
         0.1109000000E+04     0.0000000000E+00
         0.1110000000E+04     0.0000000000E+00
         0.1111000000E+04     0.0000000000E+00
         0.1112000000E+04     0.0000000000E+00
         0.1113000000E+04     0.0000000000E+00
         0.1114000000E+04     0.0000000000E+00
         0.1115000000E+04     0.0000000000E+00
         0.1116000000E+04     0.0000000000E+00
         0.1117000000E+04     0.0000000000E+00
         0.1118000000E+04     0.0000000000E+00
         0.1119000000E+04     0.0000000000E+00
         0.1120000000E+04     0.0000000000E+00
         0.1121000000E+04     0.0000000000E+00
         0.1122000000E+04     0.0000000000E+00
         0.1123000000E+04     0.0000000000E+00
         0.1124000000E+04     0.0000000000E+00
         0.1125000000E+04     0.0000000000E+00
         0.1126000000E+04     0.0000000000E+00
         0.1127000000E+04     0.0000000000E+00
         0.1128000000E+04     0.0000000000E+00
         0.1129000000E+04     0.0000000000E+00
         0.1130000000E+04     0.0000000000E+00
         0.1131000000E+04     0.0000000000E+00
         0.1132000000E+04     0.0000000000E+00
         0.1133000000E+04     0.0000000000E+00
         0.1134000000E+04     0.0000000000E+00
         0.1135000000E+04     0.0000000000E+00
         0.1136000000E+04     0.0000000000E+00
         0.1137000000E+04     0.0000000000E+00
         0.1138000000E+04     0.0000000000E+00
         0.1139000000E+04     0.0000000000E+00
         0.1140000000E+04     0.0000000000E+00
         0.1141000000E+04     0.0000000000E+00
         0.1142000000E+04     0.0000000000E+00
         0.1143000000E+04     0.0000000000E+00
         0.1144000000E+04     0.0000000000E+00
         0.1145000000E+04     0.0000000000E+00
         0.1146000000E+04     0.0000000000E+00
         0.1147000000E+04     0.0000000000E+00
         0.1148000000E+04     0.0000000000E+00
         0.1149000000E+04     0.0000000000E+00
         0.1150000000E+04     0.0000000000E+00
         0.1151000000E+04     0.0000000000E+00
         0.1152000000E+04     0.0000000000E+00
         0.1153000000E+04     0.0000000000E+00
         0.1154000000E+04     0.0000000000E+00
         0.1155000000E+04     0.0000000000E+00
         0.1156000000E+04     0.0000000000E+00
         0.1157000000E+04     0.0000000000E+00
         0.1158000000E+04     0.0000000000E+00
         0.1159000000E+04     0.0000000000E+00
         0.1160000000E+04     0.0000000000E+00
         0.1161000000E+04     0.0000000000E+00
         0.1162000000E+04     0.0000000000E+00
         0.1163000000E+04     0.0000000000E+00
         0.1164000000E+04     0.0000000000E+00
         0.1165000000E+04     0.0000000000E+00
         0.1166000000E+04     0.0000000000E+00
         0.1167000000E+04     0.0000000000E+00
         0.1168000000E+04     0.0000000000E+00
         0.1169000000E+04     0.0000000000E+00
         0.1170000000E+04     0.0000000000E+00
         0.1171000000E+04     0.0000000000E+00
         0.1172000000E+04     0.0000000000E+00
         0.1173000000E+04     0.0000000000E+00
         0.1174000000E+04     0.0000000000E+00
         0.1175000000E+04     0.0000000000E+00
         0.1176000000E+04     0.0000000000E+00
         0.1177000000E+04     0.0000000000E+00
         0.1178000000E+04     0.0000000000E+00
         0.1179000000E+04     0.0000000000E+00
         0.1180000000E+04     0.0000000000E+00
         0.1181000000E+04     0.0000000000E+00
         0.1182000000E+04     0.0000000000E+00
         0.1183000000E+04     0.0000000000E+00
         0.1184000000E+04     0.0000000000E+00
         0.1185000000E+04     0.0000000000E+00
         0.1186000000E+04     0.0000000000E+00
         0.1187000000E+04     0.0000000000E+00
         0.1188000000E+04     0.0000000000E+00
         0.1189000000E+04     0.0000000000E+00
         0.1190000000E+04     0.0000000000E+00
         0.1191000000E+04     0.0000000000E+00
         0.1192000000E+04     0.0000000000E+00
         0.1193000000E+04     0.0000000000E+00
         0.1194000000E+04     0.0000000000E+00
         0.1195000000E+04     0.0000000000E+00
         0.1196000000E+04     0.0000000000E+00
         0.1197000000E+04     0.0000000000E+00
         0.1198000000E+04     0.0000000000E+00
         0.1199000000E+04     0.0000000000E+00
         0.1200000000E+04     0.0000000000E+00
         0.1201000000E+04     0.0000000000E+00
         0.1202000000E+04     0.0000000000E+00
         0.1203000000E+04     0.0000000000E+00
         0.1204000000E+04     0.0000000000E+00
         0.1205000000E+04     0.0000000000E+00
         0.1206000000E+04     0.0000000000E+00
         0.1207000000E+04     0.0000000000E+00
         0.1208000000E+04     0.0000000000E+00
         0.1209000000E+04     0.0000000000E+00
         0.1210000000E+04     0.0000000000E+00
         0.1211000000E+04     0.0000000000E+00
         0.1212000000E+04     0.0000000000E+00
         0.1213000000E+04     0.0000000000E+00
         0.1214000000E+04     0.0000000000E+00
         0.1215000000E+04     0.0000000000E+00
         0.1216000000E+04     0.0000000000E+00
         0.1217000000E+04     0.0000000000E+00
         0.1218000000E+04     0.0000000000E+00
         0.1219000000E+04     0.0000000000E+00
         0.1220000000E+04     0.0000000000E+00
         0.1221000000E+04     0.0000000000E+00
         0.1222000000E+04     0.0000000000E+00
         0.1223000000E+04     0.0000000000E+00
         0.1224000000E+04     0.0000000000E+00
         0.1225000000E+04     0.0000000000E+00
         0.1226000000E+04     0.0000000000E+00
         0.1227000000E+04     0.0000000000E+00
         0.1228000000E+04     0.0000000000E+00
         0.1229000000E+04     0.0000000000E+00
         0.1230000000E+04     0.0000000000E+00
         0.1231000000E+04     0.0000000000E+00
         0.1232000000E+04     0.0000000000E+00
         0.1233000000E+04     0.0000000000E+00
         0.1234000000E+04     0.0000000000E+00
         0.1235000000E+04     0.0000000000E+00
         0.1236000000E+04     0.0000000000E+00
         0.1237000000E+04     0.0000000000E+00
         0.1238000000E+04     0.0000000000E+00
         0.1239000000E+04     0.0000000000E+00
         0.1240000000E+04     0.0000000000E+00
         0.1241000000E+04     0.0000000000E+00
         0.1242000000E+04     0.0000000000E+00
         0.1243000000E+04     0.0000000000E+00
         0.1244000000E+04     0.0000000000E+00
         0.1245000000E+04     0.0000000000E+00
         0.1246000000E+04     0.0000000000E+00
         0.1247000000E+04     0.0000000000E+00
         0.1248000000E+04     0.0000000000E+00
         0.1249000000E+04     0.0000000000E+00
         0.1250000000E+04     0.0000000000E+00
         0.1251000000E+04     0.0000000000E+00
         0.1252000000E+04     0.0000000000E+00
         0.1253000000E+04     0.0000000000E+00
         0.1254000000E+04     0.0000000000E+00
         0.1255000000E+04     0.0000000000E+00
         0.1256000000E+04     0.0000000000E+00
         0.1257000000E+04     0.0000000000E+00
         0.1258000000E+04     0.0000000000E+00
         0.1259000000E+04     0.0000000000E+00
         0.1260000000E+04     0.0000000000E+00
         0.1261000000E+04     0.0000000000E+00
         0.1262000000E+04     0.0000000000E+00
         0.1263000000E+04     0.0000000000E+00
         0.1264000000E+04     0.0000000000E+00
         0.1265000000E+04     0.0000000000E+00
         0.1266000000E+04     0.0000000000E+00
         0.1267000000E+04     0.0000000000E+00
         0.1268000000E+04     0.0000000000E+00
         0.1269000000E+04     0.0000000000E+00
         0.1270000000E+04     0.0000000000E+00
         0.1271000000E+04     0.0000000000E+00
         0.1272000000E+04     0.0000000000E+00
         0.1273000000E+04     0.0000000000E+00
         0.1274000000E+04     0.0000000000E+00
         0.1275000000E+04     0.0000000000E+00
         0.1276000000E+04     0.0000000000E+00
         0.1277000000E+04     0.0000000000E+00
         0.1278000000E+04     0.0000000000E+00
         0.1279000000E+04     0.0000000000E+00
         0.1280000000E+04     0.0000000000E+00
         0.1281000000E+04     0.0000000000E+00
         0.1282000000E+04     0.0000000000E+00
         0.1283000000E+04     0.0000000000E+00
         0.1284000000E+04     0.0000000000E+00
         0.1285000000E+04     0.0000000000E+00
         0.1286000000E+04     0.0000000000E+00
         0.1287000000E+04     0.0000000000E+00
         0.1288000000E+04     0.0000000000E+00
         0.1289000000E+04     0.0000000000E+00
         0.1290000000E+04     0.0000000000E+00
         0.1291000000E+04     0.0000000000E+00
         0.1292000000E+04     0.0000000000E+00
         0.1293000000E+04     0.0000000000E+00
         0.1294000000E+04     0.0000000000E+00
         0.1295000000E+04     0.0000000000E+00
         0.1296000000E+04     0.0000000000E+00
         0.1297000000E+04     0.0000000000E+00
         0.1298000000E+04     0.0000000000E+00
         0.1299000000E+04     0.0000000000E+00
         0.1300000000E+04     0.0000000000E+00
         0.1301000000E+04     0.0000000000E+00
         0.1302000000E+04     0.0000000000E+00
         0.1303000000E+04     0.0000000000E+00
         0.1304000000E+04     0.0000000000E+00
         0.1305000000E+04     0.0000000000E+00
         0.1306000000E+04     0.0000000000E+00
         0.1307000000E+04     0.0000000000E+00
         0.1308000000E+04     0.0000000000E+00
         0.1309000000E+04     0.0000000000E+00
         0.1310000000E+04     0.0000000000E+00
         0.1311000000E+04     0.0000000000E+00
         0.1312000000E+04     0.0000000000E+00
         0.1313000000E+04     0.0000000000E+00
         0.1314000000E+04     0.0000000000E+00
         0.1315000000E+04     0.0000000000E+00
         0.1316000000E+04     0.0000000000E+00
         0.1317000000E+04     0.0000000000E+00
         0.1318000000E+04     0.0000000000E+00
         0.1319000000E+04     0.0000000000E+00
         0.1320000000E+04     0.0000000000E+00
         0.1321000000E+04     0.0000000000E+00
         0.1322000000E+04     0.0000000000E+00
         0.1323000000E+04     0.0000000000E+00
         0.1324000000E+04     0.0000000000E+00
         0.1325000000E+04     0.0000000000E+00
         0.1326000000E+04     0.0000000000E+00
         0.1327000000E+04     0.0000000000E+00
         0.1328000000E+04     0.0000000000E+00
         0.1329000000E+04     0.0000000000E+00
         0.1330000000E+04     0.0000000000E+00
         0.1331000000E+04     0.0000000000E+00
         0.1332000000E+04     0.0000000000E+00
         0.1333000000E+04     0.0000000000E+00
         0.1334000000E+04     0.0000000000E+00
         0.1335000000E+04     0.0000000000E+00
         0.1336000000E+04     0.0000000000E+00
         0.1337000000E+04     0.0000000000E+00
         0.1338000000E+04     0.0000000000E+00
         0.1339000000E+04     0.0000000000E+00
         0.1340000000E+04     0.0000000000E+00
         0.1341000000E+04     0.0000000000E+00
         0.1342000000E+04     0.0000000000E+00
         0.1343000000E+04     0.0000000000E+00
         0.1344000000E+04     0.0000000000E+00
         0.1345000000E+04     0.0000000000E+00
         0.1346000000E+04     0.0000000000E+00
         0.1347000000E+04     0.0000000000E+00
         0.1348000000E+04     0.0000000000E+00
         0.1349000000E+04     0.0000000000E+00
         0.1350000000E+04     0.0000000000E+00
         0.1351000000E+04     0.0000000000E+00
         0.1352000000E+04     0.0000000000E+00
         0.1353000000E+04     0.0000000000E+00
         0.1354000000E+04     0.0000000000E+00
         0.1355000000E+04     0.0000000000E+00
         0.1356000000E+04     0.0000000000E+00
         0.1357000000E+04     0.0000000000E+00
         0.1358000000E+04     0.0000000000E+00
         0.1359000000E+04     0.2000000000E+04
         0.1360000000E+04     0.2000000000E+04
         0.1361000000E+04     0.2000000000E+04
         0.1362000000E+04     0.2000000000E+04
         0.1363000000E+04     0.2000000000E+04
         0.1364000000E+04     0.2000000000E+04
         0.1365000000E+04     0.2000000000E+04
         0.1366000000E+04     0.2000000000E+04
         0.1367000000E+04     0.2000000000E+04
         0.1368000000E+04     0.2000000000E+04
         0.1369000000E+04     0.1000000000E+04
         0.1370000000E+04     0.1000000000E+04
         0.1371000000E+04     0.1000000000E+04
         0.1372000000E+04     0.1000000000E+04
         0.1373000000E+04     0.1000000000E+04
         0.1374000000E+04     0.1000000000E+04
         0.1375000000E+04     0.1000000000E+04
         0.1376000000E+04     0.1000000000E+04
         0.1377000000E+04     0.1000000000E+04
         0.1378000000E+04     0.1000000000E+04
         0.1379000000E+04     0.1000000000E+04
         0.1380000000E+04     0.1000000000E+04
         0.1381000000E+04     0.1000000000E+04
         0.1382000000E+04     0.1000000000E+04
         0.1383000000E+04     0.1000000000E+04
         0.1384000000E+04     0.1000000000E+04
         0.1385000000E+04     0.1000000000E+04
         0.1386000000E+04     0.1000000000E+04
         0.1387000000E+04     0.1000000000E+04
         0.1388000000E+04     0.1000000000E+04
         0.1389000000E+04     0.1000000000E+04
         0.1390000000E+04     0.1000000000E+04
         0.1391000000E+04     0.1000000000E+04
         0.1392000000E+04     0.1000000000E+04
         0.1393000000E+04     0.1000000000E+04
         0.1394000000E+04     0.1000000000E+04
         0.1395000000E+04     0.1000000000E+04
         0.1396000000E+04     0.1000000000E+04
         0.1397000000E+04     0.1000000000E+04
         0.1398000000E+04     0.1000000000E+04
         0.1399000000E+04     0.1000000000E+04
         0.1400000000E+04     0.1000000000E+04
         0.1401000000E+04     0.1000000000E+04
         0.1402000000E+04     0.1000000000E+04
         0.1403000000E+04     0.1000000000E+04
         0.1404000000E+04     0.1000000000E+04
         0.1405000000E+04     0.1000000000E+04
         0.1406000000E+04     0.1000000000E+04
         0.1407000000E+04     0.1000000000E+04
         0.1408000000E+04     0.1000000000E+04
         0.1409000000E+04     0.1000000000E+04
         0.1410000000E+04     0.1000000000E+04
         0.1411000000E+04     0.1000000000E+04
         0.1412000000E+04     0.1000000000E+04
         0.1413000000E+04     0.1000000000E+04
         0.1414000000E+04     0.1000000000E+04
         0.1415000000E+04     0.1000000000E+04
         0.1416000000E+04     0.1000000000E+04
         0.1417000000E+04     0.1000000000E+04
         0.1418000000E+04     0.1000000000E+04
         0.1419000000E+04     0.1000000000E+04
         0.1420000000E+04     0.1000000000E+04
         0.1421000000E+04     0.1000000000E+04
         0.1422000000E+04     0.1000000000E+04
         0.1423000000E+04     0.1000000000E+04
         0.1424000000E+04     0.1000000000E+04
         0.1425000000E+04     0.1000000000E+04
         0.1426000000E+04     0.1000000000E+04
         0.1427000000E+04     0.1000000000E+04
         0.1428000000E+04     0.1000000000E+04
         0.1429000000E+04     0.1000000000E+04
         0.1430000000E+04     0.1000000000E+04
         0.1431000000E+04     0.0000000000E+00
         0.1432000000E+04     0.0000000000E+00
         0.1433000000E+04     0.0000000000E+00
         0.1434000000E+04     0.0000000000E+00
         0.1435000000E+04     0.0000000000E+00
         0.1436000000E+04     0.0000000000E+00
         0.1437000000E+04     0.0000000000E+00
         0.1438000000E+04     0.0000000000E+00
         0.1439000000E+04     0.0000000000E+00
         0.1440000000E+04     0.0000000000E+00
         0.1441000000E+04     0.0000000000E+00
         0.1442000000E+04     0.0000000000E+00
         0.1443000000E+04     0.0000000000E+00
         0.1444000000E+04     0.0000000000E+00
         0.1445000000E+04     0.0000000000E+00
         0.1446000000E+04     0.0000000000E+00
         0.1447000000E+04     0.0000000000E+00
         0.1448000000E+04     0.0000000000E+00
         0.1449000000E+04     0.0000000000E+00
         0.1450000000E+04     0.0000000000E+00
         0.1451000000E+04     0.0000000000E+00
         0.1452000000E+04     0.0000000000E+00
         0.1453000000E+04     0.0000000000E+00
         0.1454000000E+04     0.0000000000E+00
         0.1455000000E+04     0.0000000000E+00
         0.1456000000E+04     0.0000000000E+00
         0.1457000000E+04     0.0000000000E+00
         0.1458000000E+04     0.0000000000E+00
         0.1459000000E+04     0.0000000000E+00
         0.1460000000E+04     0.0000000000E+00
         0.1461000000E+04     0.0000000000E+00
         0.1462000000E+04     0.0000000000E+00
         0.1463000000E+04     0.0000000000E+00
         0.1464000000E+04     0.0000000000E+00
         0.1465000000E+04     0.0000000000E+00
         0.1466000000E+04     0.0000000000E+00
         0.1467000000E+04     0.0000000000E+00
         0.1468000000E+04     0.0000000000E+00
         0.1469000000E+04     0.0000000000E+00
         0.1470000000E+04     0.0000000000E+00
         0.1471000000E+04     0.0000000000E+00
         0.1472000000E+04     0.0000000000E+00
         0.1473000000E+04     0.0000000000E+00
         0.1474000000E+04     0.0000000000E+00
         0.1475000000E+04     0.0000000000E+00
         0.1476000000E+04     0.0000000000E+00
         0.1477000000E+04     0.0000000000E+00
         0.1478000000E+04     0.0000000000E+00
         0.1479000000E+04     0.0000000000E+00
         0.1480000000E+04     0.0000000000E+00
         0.1481000000E+04     0.0000000000E+00
         0.1482000000E+04     0.0000000000E+00
         0.1483000000E+04     0.0000000000E+00
         0.1484000000E+04     0.0000000000E+00
         0.1485000000E+04     0.0000000000E+00
         0.1486000000E+04     0.0000000000E+00
         0.1487000000E+04     0.0000000000E+00
         0.1488000000E+04     0.0000000000E+00
         0.1489000000E+04     0.0000000000E+00
         0.1490000000E+04     0.0000000000E+00
         0.1491000000E+04     0.0000000000E+00
         0.1492000000E+04     0.0000000000E+00
         0.1493000000E+04     0.0000000000E+00
         0.1494000000E+04     0.0000000000E+00
         0.1495000000E+04     0.0000000000E+00
         0.1496000000E+04     0.0000000000E+00
         0.1497000000E+04     0.0000000000E+00
         0.1498000000E+04     0.0000000000E+00
         0.1499000000E+04     0.0000000000E+00
         0.1500000000E+04     0.0000000000E+00
         0.1501000000E+04     0.0000000000E+00
         0.1502000000E+04     0.0000000000E+00
         0.1503000000E+04     0.0000000000E+00
         0.1504000000E+04     0.0000000000E+00
         0.1505000000E+04     0.0000000000E+00
         0.1506000000E+04     0.0000000000E+00
         0.1507000000E+04     0.0000000000E+00
         0.1508000000E+04     0.0000000000E+00
         0.1509000000E+04     0.0000000000E+00
         0.1510000000E+04     0.0000000000E+00
         0.1511000000E+04     0.0000000000E+00
         0.1512000000E+04     0.0000000000E+00
         0.1513000000E+04     0.0000000000E+00
         0.1514000000E+04     0.0000000000E+00
         0.1515000000E+04     0.0000000000E+00
         0.1516000000E+04     0.0000000000E+00
         0.1517000000E+04     0.0000000000E+00
         0.1518000000E+04     0.0000000000E+00
         0.1519000000E+04     0.0000000000E+00
         0.1520000000E+04     0.0000000000E+00
         0.1521000000E+04     0.0000000000E+00
         0.1522000000E+04     0.0000000000E+00
         0.1523000000E+04     0.0000000000E+00
         0.1524000000E+04     0.0000000000E+00
         0.1525000000E+04     0.0000000000E+00
         0.1526000000E+04     0.0000000000E+00
         0.1527000000E+04     0.0000000000E+00
         0.1528000000E+04     0.0000000000E+00
         0.1529000000E+04     0.0000000000E+00
         0.1530000000E+04     0.0000000000E+00
         0.1531000000E+04     0.0000000000E+00
         0.1532000000E+04     0.0000000000E+00
         0.1533000000E+04     0.0000000000E+00
         0.1534000000E+04     0.0000000000E+00
         0.1535000000E+04     0.0000000000E+00
         0.1536000000E+04     0.0000000000E+00
         0.1537000000E+04     0.0000000000E+00
         0.1538000000E+04     0.0000000000E+00
         0.1539000000E+04     0.0000000000E+00
         0.1540000000E+04     0.0000000000E+00
         0.1541000000E+04     0.0000000000E+00
         0.1542000000E+04     0.0000000000E+00
         0.1543000000E+04     0.0000000000E+00
         0.1544000000E+04     0.0000000000E+00
         0.1545000000E+04     0.0000000000E+00
         0.1546000000E+04     0.0000000000E+00
         0.1547000000E+04     0.0000000000E+00
         0.1548000000E+04     0.0000000000E+00
         0.1549000000E+04     0.0000000000E+00
         0.1550000000E+04     0.0000000000E+00
         0.1551000000E+04     0.0000000000E+00
         0.1552000000E+04     0.0000000000E+00
         0.1553000000E+04     0.0000000000E+00
         0.1554000000E+04     0.0000000000E+00
         0.1555000000E+04     0.0000000000E+00
         0.1556000000E+04     0.0000000000E+00
         0.1557000000E+04     0.0000000000E+00
         0.1558000000E+04     0.0000000000E+00
         0.1559000000E+04     0.0000000000E+00
         0.1560000000E+04     0.0000000000E+00
         0.1561000000E+04     0.0000000000E+00
         0.1562000000E+04     0.0000000000E+00
         0.1563000000E+04     0.0000000000E+00
         0.1564000000E+04     0.0000000000E+00
         0.1565000000E+04     0.0000000000E+00
         0.1566000000E+04     0.0000000000E+00
         0.1567000000E+04     0.0000000000E+00
         0.1568000000E+04     0.0000000000E+00
         0.1569000000E+04     0.0000000000E+00
         0.1570000000E+04     0.0000000000E+00
         0.1571000000E+04     0.0000000000E+00
         0.1572000000E+04     0.0000000000E+00
         0.1573000000E+04     0.0000000000E+00
         0.1574000000E+04     0.0000000000E+00
         0.1575000000E+04     0.0000000000E+00
         0.1576000000E+04     0.0000000000E+00
         0.1577000000E+04     0.0000000000E+00
         0.1578000000E+04     0.0000000000E+00
         0.1579000000E+04     0.0000000000E+00
         0.1580000000E+04     0.0000000000E+00
         0.1581000000E+04     0.0000000000E+00
         0.1582000000E+04     0.0000000000E+00
         0.1583000000E+04     0.0000000000E+00
         0.1584000000E+04     0.0000000000E+00
         0.1585000000E+04     0.0000000000E+00
         0.1586000000E+04     0.0000000000E+00
         0.1587000000E+04     0.0000000000E+00
         0.1588000000E+04     0.0000000000E+00
         0.1589000000E+04     0.0000000000E+00
         0.1590000000E+04     0.0000000000E+00
         0.1591000000E+04     0.0000000000E+00
         0.1592000000E+04     0.0000000000E+00
         0.1593000000E+04     0.0000000000E+00
         0.1594000000E+04     0.0000000000E+00
         0.1595000000E+04     0.0000000000E+00
         0.1596000000E+04     0.0000000000E+00
         0.1597000000E+04     0.0000000000E+00
         0.1598000000E+04     0.0000000000E+00
         0.1599000000E+04     0.0000000000E+00
         0.1600000000E+04     0.0000000000E+00
         0.1601000000E+04     0.0000000000E+00
         0.1602000000E+04     0.0000000000E+00
         0.1603000000E+04     0.0000000000E+00
         0.1604000000E+04     0.0000000000E+00
         0.1605000000E+04     0.0000000000E+00
         0.1606000000E+04     0.0000000000E+00
         0.1607000000E+04     0.0000000000E+00
         0.1608000000E+04     0.0000000000E+00
         0.1609000000E+04     0.0000000000E+00
         0.1610000000E+04     0.0000000000E+00
         0.1611000000E+04     0.0000000000E+00
         0.1612000000E+04     0.0000000000E+00
         0.1613000000E+04     0.0000000000E+00
         0.1614000000E+04     0.0000000000E+00
         0.1615000000E+04     0.0000000000E+00
         0.1616000000E+04     0.0000000000E+00
         0.1617000000E+04     0.0000000000E+00
         0.1618000000E+04     0.0000000000E+00
         0.1619000000E+04     0.0000000000E+00
         0.1620000000E+04     0.0000000000E+00
         0.1621000000E+04     0.0000000000E+00
         0.1622000000E+04     0.0000000000E+00
         0.1623000000E+04     0.0000000000E+00
         0.1624000000E+04     0.0000000000E+00
         0.1625000000E+04     0.0000000000E+00
         0.1626000000E+04     0.0000000000E+00
         0.1627000000E+04     0.0000000000E+00
         0.1628000000E+04     0.0000000000E+00
         0.1629000000E+04     0.0000000000E+00
         0.1630000000E+04     0.0000000000E+00
         0.1631000000E+04     0.0000000000E+00
         0.1632000000E+04     0.0000000000E+00
         0.1633000000E+04     0.0000000000E+00
         0.1634000000E+04     0.0000000000E+00
         0.1635000000E+04     0.0000000000E+00
         0.1636000000E+04     0.0000000000E+00
         0.1637000000E+04     0.0000000000E+00
         0.1638000000E+04     0.0000000000E+00
         0.1639000000E+04     0.0000000000E+00
         0.1640000000E+04     0.0000000000E+00
         0.1641000000E+04     0.0000000000E+00
         0.1642000000E+04     0.0000000000E+00
         0.1643000000E+04     0.0000000000E+00
         0.1644000000E+04     0.0000000000E+00
         0.1645000000E+04     0.0000000000E+00
         0.1646000000E+04     0.0000000000E+00
         0.1647000000E+04     0.0000000000E+00
         0.1648000000E+04     0.0000000000E+00
         0.1649000000E+04     0.0000000000E+00
         0.1650000000E+04     0.0000000000E+00
         0.1651000000E+04     0.0000000000E+00
         0.1652000000E+04     0.0000000000E+00
         0.1653000000E+04     0.0000000000E+00
         0.1654000000E+04     0.0000000000E+00
         0.1655000000E+04     0.0000000000E+00
         0.1656000000E+04     0.0000000000E+00
         0.1657000000E+04     0.0000000000E+00
         0.1658000000E+04     0.0000000000E+00
         0.1659000000E+04     0.0000000000E+00
         0.1660000000E+04     0.0000000000E+00
         0.1661000000E+04     0.0000000000E+00
         0.1662000000E+04     0.0000000000E+00
         0.1663000000E+04     0.0000000000E+00
         0.1664000000E+04     0.0000000000E+00
         0.1665000000E+04     0.0000000000E+00
         0.1666000000E+04     0.0000000000E+00
         0.1667000000E+04     0.0000000000E+00
         0.1668000000E+04     0.0000000000E+00
         0.1669000000E+04     0.0000000000E+00
         0.1670000000E+04     0.0000000000E+00
         0.1671000000E+04     0.0000000000E+00
         0.1672000000E+04     0.0000000000E+00
         0.1673000000E+04     0.0000000000E+00
         0.1674000000E+04     0.0000000000E+00
         0.1675000000E+04     0.0000000000E+00
         0.1676000000E+04     0.0000000000E+00
         0.1677000000E+04     0.0000000000E+00
         0.1678000000E+04     0.0000000000E+00
         0.1679000000E+04     0.0000000000E+00
         0.1680000000E+04     0.0000000000E+00
         0.1681000000E+04     0.0000000000E+00
         0.1682000000E+04     0.0000000000E+00
         0.1683000000E+04     0.0000000000E+00
         0.1684000000E+04     0.0000000000E+00
         0.1685000000E+04     0.0000000000E+00
         0.1686000000E+04     0.0000000000E+00
         0.1687000000E+04     0.0000000000E+00
         0.1688000000E+04     0.0000000000E+00
         0.1689000000E+04     0.0000000000E+00
         0.1690000000E+04     0.0000000000E+00
         0.1691000000E+04     0.0000000000E+00
         0.1692000000E+04     0.0000000000E+00
         0.1693000000E+04     0.0000000000E+00
         0.1694000000E+04     0.0000000000E+00
         0.1695000000E+04     0.0000000000E+00
         0.1696000000E+04     0.0000000000E+00
         0.1697000000E+04     0.0000000000E+00
         0.1698000000E+04     0.0000000000E+00
         0.1699000000E+04     0.0000000000E+00
         0.1700000000E+04     0.0000000000E+00
         0.1701000000E+04     0.0000000000E+00
         0.1702000000E+04     0.0000000000E+00
         0.1703000000E+04     0.0000000000E+00
         0.1704000000E+04     0.0000000000E+00
         0.1705000000E+04     0.0000000000E+00
         0.1706000000E+04     0.0000000000E+00
         0.1707000000E+04     0.0000000000E+00
         0.1708000000E+04     0.0000000000E+00
         0.1709000000E+04     0.0000000000E+00
         0.1710000000E+04     0.0000000000E+00
         0.1711000000E+04     0.0000000000E+00
         0.1712000000E+04     0.0000000000E+00
         0.1713000000E+04     0.0000000000E+00
         0.1714000000E+04     0.0000000000E+00
         0.1715000000E+04     0.0000000000E+00
         0.1716000000E+04     0.0000000000E+00
         0.1717000000E+04     0.0000000000E+00
         0.1718000000E+04     0.0000000000E+00
         0.1719000000E+04     0.0000000000E+00
         0.1720000000E+04     0.0000000000E+00
         0.1721000000E+04     0.0000000000E+00
         0.1722000000E+04     0.0000000000E+00
         0.1723000000E+04     0.0000000000E+00
         0.1724000000E+04     0.2000000000E+04
         0.1725000000E+04     0.2000000000E+04
         0.1726000000E+04     0.2000000000E+04
         0.1727000000E+04     0.2000000000E+04
         0.1728000000E+04     0.2000000000E+04
         0.1729000000E+04     0.2000000000E+04
         0.1730000000E+04     0.2000000000E+04
         0.1731000000E+04     0.2000000000E+04
         0.1732000000E+04     0.2000000000E+04
         0.1733000000E+04     0.2000000000E+04
         0.1734000000E+04     0.1000000000E+04
         0.1735000000E+04     0.1000000000E+04
         0.1736000000E+04     0.1000000000E+04
         0.1737000000E+04     0.1000000000E+04
         0.1738000000E+04     0.1000000000E+04
         0.1739000000E+04     0.1000000000E+04
         0.1740000000E+04     0.1000000000E+04
         0.1741000000E+04     0.1000000000E+04
         0.1742000000E+04     0.1000000000E+04
         0.1743000000E+04     0.1000000000E+04
         0.1744000000E+04     0.1000000000E+04
         0.1745000000E+04     0.1000000000E+04
         0.1746000000E+04     0.1000000000E+04
         0.1747000000E+04     0.1000000000E+04
         0.1748000000E+04     0.1000000000E+04
         0.1749000000E+04     0.1000000000E+04
         0.1750000000E+04     0.1000000000E+04
         0.1751000000E+04     0.1000000000E+04
         0.1752000000E+04     0.1000000000E+04
         0.1753000000E+04     0.1000000000E+04
         0.1754000000E+04     0.1000000000E+04
         0.1755000000E+04     0.1000000000E+04
         0.1756000000E+04     0.1000000000E+04
         0.1757000000E+04     0.1000000000E+04
         0.1758000000E+04     0.1000000000E+04
         0.1759000000E+04     0.1000000000E+04
         0.1760000000E+04     0.1000000000E+04
         0.1761000000E+04     0.1000000000E+04
         0.1762000000E+04     0.1000000000E+04
         0.1763000000E+04     0.1000000000E+04
         0.1764000000E+04     0.1000000000E+04
         0.1765000000E+04     0.1000000000E+04
         0.1766000000E+04     0.1000000000E+04
         0.1767000000E+04     0.1000000000E+04
         0.1768000000E+04     0.1000000000E+04
         0.1769000000E+04     0.1000000000E+04
         0.1770000000E+04     0.1000000000E+04
         0.1771000000E+04     0.1000000000E+04
         0.1772000000E+04     0.1000000000E+04
         0.1773000000E+04     0.1000000000E+04
         0.1774000000E+04     0.1000000000E+04
         0.1775000000E+04     0.1000000000E+04
         0.1776000000E+04     0.1000000000E+04
         0.1777000000E+04     0.1000000000E+04
         0.1778000000E+04     0.1000000000E+04
         0.1779000000E+04     0.1000000000E+04
         0.1780000000E+04     0.1000000000E+04
         0.1781000000E+04     0.1000000000E+04
         0.1782000000E+04     0.1000000000E+04
         0.1783000000E+04     0.1000000000E+04
         0.1784000000E+04     0.1000000000E+04
         0.1785000000E+04     0.1000000000E+04
         0.1786000000E+04     0.1000000000E+04
         0.1787000000E+04     0.1000000000E+04
         0.1788000000E+04     0.1000000000E+04
         0.1789000000E+04     0.1000000000E+04
         0.1790000000E+04     0.1000000000E+04
         0.1791000000E+04     0.1000000000E+04
         0.1792000000E+04     0.1000000000E+04
         0.1793000000E+04     0.1000000000E+04
         0.1794000000E+04     0.1000000000E+04
         0.1795000000E+04     0.1000000000E+04
         0.1796000000E+04     0.0000000000E+00
         0.1797000000E+04     0.0000000000E+00
         0.1798000000E+04     0.0000000000E+00
         0.1799000000E+04     0.0000000000E+00
         0.1800000000E+04     0.0000000000E+00
         0.1801000000E+04     0.0000000000E+00
         0.1802000000E+04     0.0000000000E+00
         0.1803000000E+04     0.0000000000E+00
         0.1804000000E+04     0.0000000000E+00
         0.1805000000E+04     0.0000000000E+00
         0.1806000000E+04     0.0000000000E+00
         0.1807000000E+04     0.0000000000E+00
         0.1808000000E+04     0.0000000000E+00
         0.1809000000E+04     0.0000000000E+00
         0.1810000000E+04     0.0000000000E+00
         0.1811000000E+04     0.0000000000E+00
         0.1812000000E+04     0.0000000000E+00
         0.1813000000E+04     0.0000000000E+00
         0.1814000000E+04     0.0000000000E+00
         0.1815000000E+04     0.0000000000E+00
         0.1816000000E+04     0.0000000000E+00
         0.1817000000E+04     0.0000000000E+00
         0.1818000000E+04     0.0000000000E+00
         0.1819000000E+04     0.0000000000E+00
         0.1820000000E+04     0.0000000000E+00
         0.1821000000E+04     0.0000000000E+00
         0.1822000000E+04     0.0000000000E+00
         0.1823000000E+04     0.0000000000E+00
         0.1824000000E+04     0.0000000000E+00
         0.1825000000E+04     0.0000000000E+00
         0.1826000000E+04     0.0000000000E+00
         0.1827000000E+04     0.0000000000E+00
         0.1828000000E+04     0.0000000000E+00
         0.1829000000E+04     0.0000000000E+00
         0.1830000000E+04     0.0000000000E+00
         0.1831000000E+04     0.0000000000E+00
         0.1832000000E+04     0.0000000000E+00
         0.1833000000E+04     0.0000000000E+00
         0.1834000000E+04     0.0000000000E+00
         0.1835000000E+04     0.0000000000E+00
         0.1836000000E+04     0.0000000000E+00
         0.1837000000E+04     0.0000000000E+00
         0.1838000000E+04     0.0000000000E+00
         0.1839000000E+04     0.0000000000E+00
         0.1840000000E+04     0.0000000000E+00
         0.1841000000E+04     0.0000000000E+00
         0.1842000000E+04     0.0000000000E+00
         0.1843000000E+04     0.0000000000E+00
         0.1844000000E+04     0.0000000000E+00
         0.1845000000E+04     0.0000000000E+00
         0.1846000000E+04     0.0000000000E+00
         0.1847000000E+04     0.0000000000E+00
         0.1848000000E+04     0.0000000000E+00
         0.1849000000E+04     0.0000000000E+00
         0.1850000000E+04     0.0000000000E+00
         0.1851000000E+04     0.0000000000E+00
         0.1852000000E+04     0.0000000000E+00
         0.1853000000E+04     0.0000000000E+00
         0.1854000000E+04     0.0000000000E+00
         0.1855000000E+04     0.0000000000E+00
         0.1856000000E+04     0.0000000000E+00



            AREAL INFILTRATION RATE
 READING ON UNIT   14 WITH FORMAT: (FREE)              

            1           2           3           4           5           6           7           8           9          10
           11          12          13          14          15          16          17          18          19          20
           21          22          23          24          25          26          27          28          29          30
           31          32          33          34          35          36          37          38          39          40
           41          42          43          44          45          46          47          48          49          50
           51          52          53          54          55          56          57          58          59          60
           61          62          63          64          65          66          67          68          69          70
           71          72          73          74          75          76          77          78          79
 ........................................................................................................................
   1    0.000       0.000       0.000       0.000       0.000       0.000       0.000       0.000       0.000       0.000    
        0.000       0.000       0.000       0.000       0.000       0.000       0.000       0.000       0.000       0.000    
        0.000       0.000       0.000       0.000       0.000       0.000       0.000       0.000       0.000       0.000    
        0.000       0.000       0.000       0.000       0.000       0.000       0.000       0.000       0.000       0.000    
        0.000       0.000       0.000       0.000       0.000       0.000       0.000       0.000       0.000       0.000    
        0.000      8.8000E-04  8.8000E-04   0.000       0.000       0.000       0.000       0.000       0.000       0.000    
        0.000       0.000       0.000       0.000       0.000       0.000       0.000       0.000       0.000       0.000    
        0.000       0.000       0.000       0.000       0.000       0.000       0.000       0.000       0.000    
   2    0.000       0.000       0.000       0.000       0.000       0.000       0.000       0.000       0.000       0.000    
        0.000       0.000       0.000       0.000       0.000       0.000       0.000       0.000       0.000       0.000    
        0.000       0.000       0.000       0.000       0.000       0.000       0.000       0.000       0.000       0.000    
        0.000       0.000       0.000       0.000       0.000       0.000       0.000       0.000       0.000       0.000    
        0.000       0.000       0.000       0.000       0.000       0.000       0.000       0.000       0.000       0.000    
        0.000      9.6000E-04  8.8000E-04  8.0000E-04   0.000       0.000       0.000       0.000       0.000       0.000    
        0.000       0.000       0.000       0.000       0.000       0.000       0.000       0.000       0.000       0.000    
        0.000       0.000       0.000       0.000       0.000       0.000       0.000       0.000       0.000    
   3    0.000       0.000       0.000       0.000       0.000       0.000       0.000       0.000       0.000       0.000    
        0.000       0.000       0.000       0.000       0.000       0.000       0.000       0.000       0.000       0.000    
        0.000       0.000       0.000       0.000       0.000       0.000       0.000       0.000       0.000       0.000    
        0.000       0.000       0.000       0.000       0.000       0.000       0.000       0.000       0.000       0.000    
        0.000       0.000       0.000       0.000       0.000       0.000       0.000       0.000       0.000       0.000    
        0.000      9.6000E-04  8.8000E-04  8.0000E-04   0.000       0.000       0.000       0.000       0.000       0.000    
        0.000       0.000       0.000       0.000       0.000       0.000       0.000       0.000       0.000       0.000    
        0.000       0.000       0.000       0.000       0.000       0.000       0.000       0.000       0.000    
   4    0.000       0.000       0.000       0.000       0.000       0.000       0.000       0.000       0.000       0.000    
        0.000       0.000       0.000       0.000       0.000       0.000       0.000       0.000       0.000       0.000    
        0.000       0.000       0.000       0.000       0.000       0.000       0.000       0.000       0.000       0.000    
        0.000       0.000       0.000       0.000       0.000       0.000       0.000       0.000       0.000       0.000    
        0.000       0.000       0.000       0.000       0.000       0.000       0.000       0.000       0.000       0.000    
        0.000      8.8000E-04  8.0000E-04  8.0000E-04  8.0000E-04   0.000       0.000       0.000       0.000       0.000    
        0.000       0.000       0.000       0.000       0.000       0.000       0.000       0.000       0.000       0.000    
        0.000       0.000       0.000       0.000       0.000       0.000       0.000       0.000       0.000    
   5    0.000       0.000       0.000       0.000       0.000       0.000       0.000       0.000       0.000       0.000    
        0.000       0.000       0.000       0.000       0.000       0.000       0.000       0.000       0.000       0.000    
        0.000       0.000       0.000       0.000       0.000       0.000       0.000       0.000       0.000       0.000    
        0.000       0.000       0.000       0.000       0.000       0.000       0.000       0.000       0.000       0.000    
        0.000       0.000       0.000       0.000       0.000       0.000       0.000       0.000       0.000       0.000    
        0.000      8.8000E-04  8.0000E-04  8.0000E-04  8.0000E-04  8.0000E-04  8.0000E-04   0.000       0.000       0.000    
        0.000       0.000       0.000       0.000       0.000       0.000       0.000       0.000       0.000       0.000    
        0.000       0.000       0.000       0.000       0.000       0.000       0.000       0.000       0.000    
   6    0.000       0.000       0.000       0.000       0.000       0.000       0.000       0.000       0.000       0.000    
        0.000       0.000       0.000       0.000       0.000       0.000       0.000       0.000       0.000       0.000    
        0.000       0.000       0.000       0.000       0.000       0.000       0.000       0.000       0.000       0.000    
        0.000       0.000       0.000       0.000       0.000       0.000       0.000       0.000       0.000       0.000    
        0.000       0.000       0.000       0.000       0.000       0.000       0.000       0.000       0.000       0.000    
        0.000      8.8000E-04  8.0000E-04  8.0000E-04  8.0000E-04  8.0000E-04  8.0000E-04  8.0000E-04  8.0000E-04   0.000    
        0.000       0.000       0.000      8.0000E-04  8.0000E-04   0.000       0.000       0.000       0.000       0.000    
        0.000       0.000       0.000       0.000       0.000       0.000       0.000       0.000       0.000    
   7    0.000       0.000       0.000       0.000       0.000       0.000       0.000       0.000       0.000       0.000    
        0.000       0.000       0.000       0.000       0.000       0.000       0.000       0.000       0.000       0.000    
        0.000       0.000       0.000       0.000       0.000       0.000       0.000       0.000       0.000       0.000    
        0.000       0.000       0.000       0.000       0.000       0.000       0.000       0.000       0.000       0.000    
        0.000       0.000       0.000       0.000       0.000       0.000       0.000       0.000       0.000       0.000    
        0.000      8.8000E-04  8.0000E-04  8.0000E-04  8.0000E-04  8.0000E-04  8.0000E-04  8.0000E-04  8.0000E-04  8.0000E-04
       8.0000E-04  8.0000E-04  8.0000E-04  8.0000E-04  8.0000E-04  8.0000E-04   0.000       0.000       0.000       0.000    
        0.000       0.000       0.000       0.000       0.000       0.000       0.000       0.000       0.000    
   8    0.000       0.000       0.000       0.000       0.000       0.000       0.000       0.000       0.000       0.000    
        0.000       0.000       0.000       0.000       0.000       0.000       0.000       0.000       0.000       0.000    
        0.000       0.000       0.000       0.000       0.000       0.000       0.000       0.000       0.000       0.000    
        0.000       0.000       0.000       0.000       0.000       0.000       0.000       0.000       0.000       0.000    
        0.000       0.000       0.000       0.000       0.000       0.000       0.000       0.000       0.000       0.000    
        0.000      8.8000E-04  8.0000E-04  8.0000E-04  8.0000E-04  8.0000E-04  8.0000E-04  8.0000E-04  8.0000E-04  8.0000E-04
       8.0000E-04  8.0000E-04  8.0000E-04  8.0000E-04  8.0000E-04  8.0000E-04  8.0000E-04  8.0000E-04   0.000       0.000    
        0.000       0.000       0.000       0.000       0.000       0.000       0.000       0.000       0.000    
   9    0.000       0.000       0.000       0.000       0.000       0.000       0.000       0.000       0.000       0.000    
        0.000       0.000       0.000       0.000       0.000       0.000       0.000       0.000       0.000       0.000    
        0.000       0.000       0.000       0.000       0.000       0.000       0.000       0.000       0.000       0.000    
        0.000       0.000       0.000       0.000       0.000       0.000       0.000       0.000       0.000       0.000    
        0.000       0.000       0.000       0.000       0.000       0.000       0.000       0.000       0.000       0.000    
       8.8000E-04  8.8000E-04  8.0000E-04  8.0000E-04  8.0000E-04  8.0000E-04  8.0000E-04  8.0000E-04  8.0000E-04  8.0000E-04
       8.0000E-04  8.0000E-04  8.0000E-04  8.0000E-04  8.0000E-04  8.0000E-04  8.0000E-04  8.0000E-04  8.0000E-04   0.000    
        0.000       0.000       0.000       0.000       0.000       0.000       0.000       0.000       0.000    
  10    0.000       0.000       0.000       0.000       0.000       0.000       0.000       0.000       0.000       0.000    
        0.000       0.000       0.000       0.000       0.000       0.000       0.000       0.000       0.000       0.000    
        0.000       0.000       0.000       0.000       0.000       0.000       0.000       0.000       0.000       0.000    
        0.000       0.000       0.000       0.000       0.000       0.000       0.000       0.000       0.000       0.000    
        0.000       0.000       0.000       0.000       0.000       0.000       0.000       0.000       0.000      8.8000E-04
       8.8000E-04  8.8000E-04  8.0000E-04  8.0000E-04  8.0000E-04  8.0000E-04  8.0000E-04  8.0000E-04  8.0000E-04  8.0000E-04
       8.0000E-04  8.0000E-04  8.0000E-04  8.0000E-04  8.0000E-04  8.0000E-04  8.0000E-04  8.0000E-04  8.0000E-04  8.0000E-04
        0.000       0.000       0.000       0.000       0.000       0.000       0.000       0.000       0.000    
  11    0.000       0.000       0.000       0.000       0.000       0.000       0.000       0.000       0.000       0.000    
        0.000       0.000       0.000       0.000       0.000       0.000       0.000       0.000       0.000       0.000    
        0.000       0.000       0.000       0.000       0.000       0.000       0.000       0.000       0.000       0.000    
        0.000       0.000       0.000       0.000       0.000       0.000       0.000       0.000       0.000       0.000    
        0.000       0.000       0.000       0.000       0.000       0.000       0.000       0.000      8.8000E-04  8.8000E-04
       8.8000E-04  8.8000E-04  8.0000E-04  8.0000E-04  8.0000E-04  8.0000E-04  8.0000E-04  8.0000E-04  8.0000E-04  8.0000E-04
       8.0000E-04  8.0000E-04  8.0000E-04  8.0000E-04  8.0000E-04  8.0000E-04  8.0000E-04  8.0000E-04  8.0000E-04  8.0000E-04
       8.0000E-04   0.000       0.000       0.000       0.000       0.000       0.000       0.000       0.000    
  12    0.000       0.000       0.000       0.000       0.000       0.000       0.000       0.000       0.000       0.000    
        0.000       0.000       0.000       0.000       0.000       0.000       0.000       0.000       0.000       0.000    
        0.000       0.000       0.000       0.000       0.000       0.000       0.000       0.000       0.000       0.000    
        0.000       0.000       0.000       0.000       0.000       0.000       0.000       0.000       0.000       0.000    
        0.000      9.6000E-04  9.6000E-04   0.000       0.000       0.000       0.000      8.8000E-04  8.8000E-04  8.8000E-04
       8.8000E-04  8.0000E-04  8.0000E-04  8.0000E-04  8.0000E-04  8.0000E-04  8.0000E-04  8.0000E-04  8.0000E-04  8.0000E-04
       8.0000E-04  8.0000E-04  8.0000E-04  8.0000E-04  8.0000E-04  8.0000E-04  8.0000E-04  8.0000E-04  8.0000E-04  8.0000E-04
       8.0000E-04   0.000       0.000       0.000       0.000       0.000       0.000       0.000       0.000    
  13    0.000       0.000       0.000       0.000       0.000       0.000       0.000       0.000       0.000       0.000    
        0.000       0.000       0.000       0.000       0.000       0.000       0.000       0.000       0.000       0.000    
        0.000       0.000       0.000       0.000       0.000       0.000       0.000       0.000       0.000       0.000    
        0.000       0.000       0.000       0.000       0.000       0.000       0.000       0.000      9.6000E-04  9.6000E-04
       9.6000E-04  9.6000E-04  9.6000E-04  9.6000E-04  8.8000E-04  8.8000E-04  8.8000E-04  8.8000E-04  8.8000E-04  8.8000E-04
       8.0000E-04  8.0000E-04  8.0000E-04  8.0000E-04  8.0000E-04  8.0000E-04  8.0000E-04  8.0000E-04  8.0000E-04  8.0000E-04
       8.0000E-04  8.0000E-04  8.0000E-04  8.0000E-04  8.0000E-04  8.0000E-04  8.0000E-04  8.0000E-04  8.0000E-04  8.0000E-04
       8.0000E-04  8.0000E-04   0.000       0.000       0.000       0.000       0.000       0.000       0.000    
  14    0.000       0.000       0.000       0.000       0.000       0.000       0.000       0.000       0.000       0.000    
        0.000       0.000       0.000       0.000       0.000       0.000       0.000       0.000       0.000       0.000    
        0.000       0.000       0.000       0.000       0.000       0.000       0.000       0.000       0.000       0.000    
        0.000       0.000       0.000       0.000       0.000       0.000       0.000       0.000      9.6000E-04  9.6000E-04
       9.6000E-04  9.6000E-04  9.6000E-04  8.8000E-04  8.8000E-04  8.8000E-04  8.8000E-04  8.8000E-04  8.8000E-04  8.0000E-04
       8.0000E-04  8.0000E-04  8.0000E-04  8.0000E-04  8.0000E-04  8.0000E-04  8.0000E-04  8.0000E-04  8.0000E-04  8.0000E-04
       8.0000E-04  8.0000E-04  8.0000E-04  8.0000E-04  8.0000E-04  8.0000E-04  8.0000E-04  8.0000E-04  8.0000E-04  8.0000E-04
       8.0000E-04  8.0000E-04  8.0000E-04   0.000       0.000       0.000       0.000       0.000       0.000    
  15    0.000       0.000       0.000       0.000       0.000       0.000       0.000       0.000       0.000       0.000    
        0.000       0.000       0.000       0.000       0.000       0.000       0.000       0.000       0.000       0.000    
        0.000       0.000       0.000       0.000       0.000       0.000       0.000       0.000       0.000       0.000    
        0.000       0.000       0.000       0.000       0.000       0.000       0.000      9.6000E-04  9.6000E-04  9.6000E-04
       8.8000E-04  8.8000E-04  8.8000E-04  8.8000E-04  8.8000E-04  8.8000E-04  8.8000E-04  8.8000E-04  8.8000E-04  8.0000E-04
       8.0000E-04  8.0000E-04  8.0000E-04  8.0000E-04  8.0000E-04  8.0000E-04  8.0000E-04  8.0000E-04  8.0000E-04  8.0000E-04
       8.0000E-04  8.0000E-04  8.0000E-04  8.0000E-04  8.0000E-04  8.0000E-04  8.0000E-04  8.0000E-04  8.0000E-04  8.0000E-04
       8.0000E-04  8.0000E-04  8.0000E-04   0.000       0.000       0.000       0.000       0.000       0.000    
  16    0.000       0.000       0.000       0.000       0.000       0.000       0.000       0.000       0.000       0.000    
        0.000       0.000       0.000       0.000       0.000       0.000       0.000       0.000       0.000       0.000    
        0.000       0.000       0.000       0.000       0.000       0.000       0.000       0.000       0.000       0.000    
        0.000       0.000       0.000       0.000       0.000       0.000      1.0400E-03  9.6000E-04  9.6000E-04  9.6000E-04
       9.6000E-04  8.8000E-04  8.8000E-04  8.8000E-04  8.0000E-04  8.0000E-04  8.8000E-04  8.8000E-04  8.8000E-04  8.0000E-04
       8.0000E-04  8.0000E-04  8.0000E-04  8.0000E-04  8.0000E-04  8.0000E-04  8.0000E-04  8.0000E-04  8.0000E-04  8.0000E-04
       8.0000E-04  8.0000E-04  8.0000E-04  8.0000E-04  8.0000E-04  8.0000E-04  8.0000E-04  8.0000E-04  8.0000E-04  8.0000E-04
       8.0000E-04  8.0000E-04  8.0000E-04  8.0000E-04   0.000       0.000       0.000       0.000       0.000    
  17    0.000       0.000       0.000       0.000       0.000       0.000       0.000       0.000       0.000       0.000    
        0.000       0.000       0.000       0.000       0.000       0.000       0.000       0.000       0.000       0.000    
        0.000       0.000       0.000       0.000       0.000       0.000       0.000       0.000       0.000       0.000    
        0.000       0.000       0.000       0.000       0.000      1.0400E-03  1.0400E-03  1.0400E-03  9.6000E-04  9.6000E-04
       8.8000E-04  8.8000E-04  8.8000E-04  8.8000E-04  8.0000E-04  8.0000E-04  8.0000E-04  8.0000E-04  8.0000E-04  8.0000E-04
       8.0000E-04  8.0000E-04  8.0000E-04  8.0000E-04  8.0000E-04  8.0000E-04  8.0000E-04  8.0000E-04  8.0000E-04  8.0000E-04
       8.0000E-04  8.0000E-04  8.0000E-04  8.0000E-04  8.0000E-04  8.0000E-04  8.0000E-04  8.0000E-04  8.0000E-04  8.0000E-04
       8.0000E-04  8.0000E-04  8.0000E-04  8.0000E-04   0.000       0.000       0.000       0.000       0.000    
  18    0.000       0.000       0.000       0.000       0.000       0.000       0.000       0.000       0.000       0.000    
        0.000       0.000       0.000       0.000       0.000       0.000       0.000       0.000       0.000       0.000    
        0.000       0.000       0.000       0.000       0.000       0.000       0.000       0.000       0.000       0.000    
        0.000       0.000       0.000       0.000      1.0400E-03  1.0400E-03  1.0400E-03  9.6000E-04  9.6000E-04  9.6000E-04
       8.8000E-04  8.8000E-04  8.8000E-04  8.8000E-04  8.0000E-04  8.0000E-04  8.0000E-04  8.0000E-04  8.0000E-04  8.0000E-04
       8.0000E-04  8.0000E-04  8.0000E-04  8.0000E-04  8.0000E-04  8.0000E-04  8.0000E-04  8.0000E-04  8.0000E-04  8.0000E-04
       8.0000E-04  8.0000E-04  8.0000E-04  8.0000E-04  8.0000E-04  8.0000E-04  8.0000E-04  8.0000E-04  8.0000E-04  8.0000E-04
       8.0000E-04  8.0000E-04  8.0000E-04  8.0000E-04   0.000       0.000       0.000       0.000       0.000    
  19    0.000       0.000       0.000       0.000       0.000       0.000       0.000       0.000       0.000       0.000    
        0.000       0.000       0.000       0.000       0.000       0.000       0.000       0.000       0.000       0.000    
        0.000       0.000       0.000       0.000       0.000       0.000       0.000       0.000       0.000       0.000    
        0.000       0.000       0.000      1.0400E-03  1.0400E-03  1.0400E-03  9.6000E-04  9.6000E-04  9.6000E-04  8.8000E-04
       8.8000E-04  8.8000E-04  8.8000E-04  8.0000E-04  8.0000E-04  8.0000E-04  8.0000E-04  8.0000E-04  8.0000E-04  8.0000E-04
       8.0000E-04  8.0000E-04  8.0000E-04  8.0000E-04  8.0000E-04  8.0000E-04  8.0000E-04  8.0000E-04  8.0000E-04  8.0000E-04
       8.0000E-04  8.0000E-04  8.0000E-04  8.0000E-04  8.0000E-04  8.0000E-04  8.0000E-04  8.0000E-04  8.0000E-04  8.0000E-04
       8.0000E-04  8.0000E-04  8.0000E-04  8.0000E-04   0.000       0.000       0.000       0.000       0.000    
  20    0.000       0.000       0.000       0.000       0.000       0.000       0.000       0.000       0.000       0.000    
        0.000       0.000       0.000       0.000       0.000       0.000       0.000       0.000       0.000       0.000    
        0.000       0.000       0.000       0.000       0.000       0.000       0.000       0.000       0.000       0.000    
        0.000       0.000       0.000      1.0400E-03  1.0400E-03  1.0400E-03  1.0400E-03  9.6000E-04  9.6000E-04  8.8000E-04
       8.8000E-04  8.8000E-04  8.8000E-04  8.0000E-04  8.0000E-04  8.0000E-04  8.0000E-04  8.0000E-04  8.0000E-04  8.0000E-04
       8.0000E-04  8.0000E-04  8.0000E-04  8.0000E-04  8.0000E-04  8.0000E-04  8.0000E-04  8.0000E-04  8.0000E-04  8.0000E-04
       8.0000E-04  8.0000E-04  8.0000E-04  8.0000E-04  8.0000E-04  8.0000E-04  8.0000E-04  8.0000E-04  8.0000E-04  8.0000E-04
       8.0000E-04  8.0000E-04  8.0000E-04  8.0000E-04   0.000       0.000       0.000       0.000       0.000    
  21    0.000       0.000       0.000       0.000       0.000       0.000       0.000       0.000       0.000       0.000    
        0.000       0.000       0.000       0.000       0.000       0.000       0.000       0.000       0.000       0.000    
        0.000       0.000       0.000       0.000       0.000       0.000       0.000       0.000       0.000       0.000    
        0.000       0.000      1.1200E-03  1.1200E-03  1.1200E-03  1.1200E-03  1.0400E-03  1.0400E-03  9.6000E-04  9.6000E-04
       8.8000E-04  8.8000E-04  8.8000E-04  8.8000E-04  8.0000E-04  8.0000E-04  8.0000E-04  8.0000E-04  8.0000E-04  8.0000E-04
       8.0000E-04  8.0000E-04  8.0000E-04  8.0000E-04  8.0000E-04  8.0000E-04  8.0000E-04  8.0000E-04  8.0000E-04  8.0000E-04
       8.0000E-04  8.0000E-04  8.0000E-04  8.0000E-04  8.0000E-04  8.0000E-04  8.0000E-04  8.0000E-04  8.0000E-04  8.0000E-04
       8.0000E-04  8.0000E-04  8.0000E-04  8.0000E-04  8.0000E-04   0.000       0.000       0.000       0.000    
  22    0.000       0.000       0.000       0.000       0.000       0.000       0.000       0.000       0.000       0.000    
        0.000       0.000       0.000       0.000       0.000       0.000       0.000       0.000       0.000       0.000    
        0.000       0.000       0.000       0.000       0.000       0.000       0.000       0.000       0.000       0.000    
        0.000       0.000      1.1200E-03  1.1200E-03  1.1200E-03  1.1200E-03  1.0400E-03  9.6000E-04  9.6000E-04  9.6000E-04
       8.8000E-04  8.8000E-04  8.0000E-04  8.0000E-04  8.0000E-04  8.0000E-04  8.0000E-04  8.0000E-04  8.0000E-04  8.0000E-04
       8.0000E-04  8.0000E-04  8.0000E-04  8.0000E-04  8.0000E-04  8.0000E-04  8.0000E-04  8.0000E-04  8.0000E-04  8.0000E-04
       8.0000E-04  8.0000E-04  8.0000E-04  8.0000E-04  8.0000E-04  8.0000E-04  8.0000E-04  8.0000E-04  8.0000E-04  8.0000E-04
       8.0000E-04  8.0000E-04  8.0000E-04  8.0000E-04   0.000       0.000       0.000       0.000       0.000    
  23    0.000       0.000       0.000       0.000       0.000       0.000       0.000       0.000       0.000       0.000    
        0.000       0.000       0.000       0.000       0.000       0.000       0.000       0.000       0.000       0.000    
        0.000       0.000       0.000       0.000       0.000       0.000       0.000       0.000       0.000       0.000    
        0.000      1.1200E-03  1.2000E-03  1.1200E-03  1.1200E-03  1.0400E-03  9.6000E-04  9.6000E-04  9.6000E-04  8.8000E-04
       8.8000E-04  8.0000E-04  8.0000E-04  8.0000E-04  8.0000E-04  8.0000E-04  8.0000E-04  8.0000E-04  8.0000E-04  8.0000E-04
       8.0000E-04  8.0000E-04  8.0000E-04  8.0000E-04  8.0000E-04  8.0000E-04  8.0000E-04  8.0000E-04  8.0000E-04  8.0000E-04
       8.0000E-04  8.0000E-04  8.0000E-04  8.0000E-04  8.0000E-04  8.0000E-04  8.0000E-04  8.0000E-04  8.0000E-04  8.0000E-04
       8.0000E-04   0.000       0.000       0.000       0.000       0.000       0.000       0.000       0.000    
  24    0.000       0.000       0.000       0.000       0.000       0.000       0.000       0.000       0.000       0.000    
        0.000       0.000       0.000       0.000       0.000       0.000       0.000       0.000       0.000       0.000    
        0.000       0.000       0.000       0.000       0.000       0.000       0.000       0.000      1.2000E-03  1.2000E-03
       1.2000E-03  1.1200E-03  1.1200E-03  1.1200E-03  1.0400E-03  1.0400E-03  9.6000E-04  8.8000E-04  8.8000E-04  8.8000E-04
       8.0000E-04  8.0000E-04  8.0000E-04  8.0000E-04  8.0000E-04  8.0000E-04  8.0000E-04  8.0000E-04  8.0000E-04  8.0000E-04
       8.0000E-04  8.0000E-04  8.0000E-04  8.0000E-04  8.0000E-04  8.0000E-04  8.0000E-04  8.0000E-04  8.0000E-04  8.0000E-04
       8.0000E-04  8.0000E-04  8.0000E-04  8.0000E-04  8.0000E-04  8.0000E-04  8.0000E-04  8.0000E-04  8.0000E-04  8.0000E-04
       8.0000E-04   0.000       0.000       0.000       0.000       0.000       0.000       0.000       0.000    
  25    0.000       0.000       0.000       0.000       0.000       0.000       0.000       0.000       0.000       0.000    
        0.000       0.000       0.000       0.000       0.000       0.000       0.000       0.000       0.000       0.000    
        0.000       0.000       0.000       0.000       0.000       0.000       0.000      1.2000E-03  1.2000E-03  1.2000E-03
       1.2000E-03  1.1200E-03  1.0400E-03  1.0400E-03  9.6000E-04  9.6000E-04  8.8000E-04  8.8000E-04  8.0000E-04  8.0000E-04
       8.0000E-04  8.0000E-04  8.0000E-04  8.0000E-04  8.0000E-04  8.0000E-04  8.0000E-04  8.0000E-04  8.0000E-04  8.0000E-04
       8.0000E-04  8.0000E-04  8.0000E-04  8.0000E-04  8.0000E-04  8.0000E-04  8.0000E-04  8.0000E-04  8.0000E-04  8.0000E-04
       8.0000E-04  8.0000E-04  8.0000E-04  8.0000E-04  8.0000E-04  8.0000E-04  8.0000E-04  8.0000E-04  8.0000E-04  8.0000E-04
       8.0000E-04   0.000       0.000       0.000       0.000       0.000       0.000       0.000       0.000    
  26    0.000       0.000       0.000       0.000       0.000       0.000       0.000       0.000       0.000       0.000    
        0.000       0.000       0.000       0.000       0.000       0.000       0.000       0.000       0.000       0.000    
        0.000       0.000       0.000       0.000       0.000      1.2000E-03  1.2000E-03  1.1200E-03  1.1200E-03  1.1200E-03
       1.1200E-03  1.0400E-03  1.0400E-03  9.6000E-04  9.6000E-04  8.8000E-04  8.8000E-04  8.0000E-04  8.0000E-04  8.0000E-04
       8.0000E-04  8.0000E-04  8.0000E-04  8.0000E-04  8.0000E-04  8.0000E-04  8.0000E-04  8.0000E-04  8.0000E-04  8.0000E-04
       8.0000E-04  8.0000E-04  8.0000E-04  8.0000E-04  8.0000E-04  8.0000E-04  8.0000E-04  8.0000E-04  8.0000E-04  8.0000E-04
       8.0000E-04  8.0000E-04  8.0000E-04  8.0000E-04  8.0000E-04  8.0000E-04  8.0000E-04  8.0000E-04  8.0000E-04  8.0000E-04
       8.0000E-04   0.000       0.000       0.000       0.000       0.000       0.000       0.000       0.000    
  27    0.000       0.000       0.000       0.000       0.000       0.000       0.000       0.000       0.000       0.000    
        0.000       0.000       0.000       0.000       0.000       0.000       0.000       0.000       0.000       0.000    
        0.000       0.000       0.000       0.000      1.2800E-03  1.2000E-03  1.1200E-03  1.1200E-03  1.0400E-03  1.0400E-03
       1.0400E-03  9.6000E-04  9.6000E-04  9.6000E-04  8.8000E-04  8.8000E-04  8.0000E-04  8.0000E-04  8.0000E-04  8.0000E-04
       8.0000E-04  8.0000E-04  8.0000E-04  8.0000E-04  8.0000E-04  8.0000E-04  8.0000E-04  8.0000E-04  8.0000E-04  8.0000E-04
       8.0000E-04  8.0000E-04  8.0000E-04  8.0000E-04  8.0000E-04  8.0000E-04  8.0000E-04  8.0000E-04  8.0000E-04  8.0000E-04
       8.0000E-04  8.0000E-04  8.0000E-04  8.0000E-04  8.0000E-04  8.0000E-04  8.0000E-04  8.0000E-04  8.0000E-04  8.0000E-04
       8.0000E-04   0.000       0.000       0.000       0.000       0.000       0.000       0.000       0.000    
  28    0.000       0.000       0.000       0.000       0.000       0.000       0.000       0.000       0.000       0.000    
        0.000       0.000       0.000       0.000       0.000       0.000       0.000       0.000       0.000       0.000    
        0.000       0.000       0.000      1.2800E-03  1.2800E-03  1.2000E-03  1.1200E-03  1.0400E-03  9.6000E-04  9.6000E-04
       9.6000E-04  8.8000E-04  8.8000E-04  8.8000E-04  8.8000E-04  8.0000E-04  8.0000E-04  8.0000E-04  8.0000E-04  8.0000E-04
       8.0000E-04  8.0000E-04  8.0000E-04  8.0000E-04  8.0000E-04  8.0000E-04  8.0000E-04  8.0000E-04  8.0000E-04  8.0000E-04
       8.0000E-04  8.0000E-04  8.0000E-04  8.0000E-04  8.0000E-04  8.0000E-04  8.0000E-04  8.0000E-04  8.0000E-04  8.0000E-04
       8.0000E-04  8.0000E-04  8.0000E-04  8.0000E-04  8.0000E-04  8.0000E-04  8.0000E-04  8.0000E-04  8.0000E-04  8.0000E-04
       8.0000E-04  8.0000E-04   0.000       0.000       0.000       0.000       0.000       0.000       0.000    
  29    0.000       0.000       0.000       0.000       0.000       0.000       0.000       0.000       0.000       0.000    
        0.000       0.000       0.000       0.000       0.000       0.000       0.000       0.000       0.000       0.000    
        0.000      1.2800E-03  1.2800E-03  1.2000E-03  1.1200E-03  1.1200E-03  1.0400E-03  9.6000E-04  9.6000E-04  8.8000E-04
       8.8000E-04  8.8000E-04  8.8000E-04  8.0000E-04  8.0000E-04  8.0000E-04  8.0000E-04  8.0000E-04  8.0000E-04  8.0000E-04
       8.0000E-04  8.0000E-04  8.0000E-04  8.0000E-04  8.0000E-04  8.0000E-04  8.0000E-04  8.0000E-04  8.0000E-04  8.0000E-04
       8.0000E-04  8.0000E-04  8.0000E-04  8.0000E-04  8.0000E-04  8.0000E-04  8.0000E-04  8.0000E-04  8.0000E-04  8.0000E-04
       8.0000E-04  8.0000E-04  8.0000E-04  8.0000E-04  8.0000E-04  8.0000E-04  8.0000E-04  8.0000E-04  8.0000E-04  8.0000E-04
       8.0000E-04  8.0000E-04   0.000       0.000       0.000       0.000       0.000       0.000       0.000    
  30    0.000       0.000       0.000       0.000       0.000       0.000       0.000       0.000       0.000       0.000    
        0.000       0.000       0.000       0.000       0.000       0.000       0.000       0.000       0.000      1.3600E-03
       1.2800E-03  1.2800E-03  1.2000E-03  1.1200E-03  1.0400E-03  1.0400E-03  1.0400E-03  9.6000E-04  8.8000E-04  8.8000E-04
       8.8000E-04  8.0000E-04  8.0000E-04  8.0000E-04  8.0000E-04  8.0000E-04  8.0000E-04  8.0000E-04  8.0000E-04  8.0000E-04
       8.0000E-04  8.0000E-04  8.0000E-04  8.0000E-04  8.0000E-04  8.0000E-04  8.0000E-04  8.0000E-04  8.0000E-04  8.0000E-04
       8.0000E-04  8.0000E-04  8.0000E-04  8.0000E-04  8.0000E-04  8.0000E-04  8.0000E-04  8.0000E-04  8.0000E-04  8.0000E-04
       8.0000E-04  8.0000E-04  8.0000E-04  8.0000E-04  8.0000E-04  8.0000E-04  8.0000E-04  8.0000E-04  8.0000E-04  8.0000E-04
       8.0000E-04  8.0000E-04   0.000       0.000       0.000       0.000       0.000       0.000       0.000    
  31    0.000       0.000       0.000       0.000       0.000       0.000       0.000       0.000       0.000       0.000    
        0.000       0.000       0.000       0.000       0.000       0.000       0.000       0.000      1.3600E-03  1.3600E-03
       1.2800E-03  1.2000E-03  1.1200E-03  1.0400E-03  9.6000E-04  9.6000E-04  9.6000E-04  8.8000E-04  8.8000E-04  8.8000E-04
       8.0000E-04  8.0000E-04  8.0000E-04  8.0000E-04  8.0000E-04  8.0000E-04  8.0000E-04  8.0000E-04  8.0000E-04  8.0000E-04
       8.0000E-04  8.0000E-04  8.0000E-04  8.0000E-04  8.0000E-04  8.0000E-04  8.0000E-04  8.0000E-04  8.0000E-04  8.0000E-04
       8.0000E-04  8.0000E-04  8.0000E-04  8.0000E-04  8.0000E-04  8.0000E-04  8.0000E-04  8.0000E-04  8.0000E-04  8.0000E-04
       8.0000E-04  8.0000E-04  8.0000E-04  8.0000E-04  8.0000E-04  8.0000E-04  8.0000E-04  8.0000E-04  8.0000E-04  8.0000E-04
       8.0000E-04  8.0000E-04   0.000       0.000       0.000       0.000       0.000       0.000       0.000    
  32    0.000       0.000       0.000       0.000       0.000       0.000       0.000       0.000       0.000       0.000    
        0.000       0.000       0.000       0.000       0.000       0.000      1.4400E-03  1.4400E-03  1.3600E-03  1.2800E-03
       1.2000E-03  1.1200E-03  1.0400E-03  1.0400E-03  9.6000E-04  9.6000E-04  9.6000E-04  8.8000E-04  8.8000E-04  8.0000E-04
       8.0000E-04  8.0000E-04  8.0000E-04  8.0000E-04  8.0000E-04  8.0000E-04  8.0000E-04  8.0000E-04  8.0000E-04  8.0000E-04
       8.0000E-04  8.0000E-04  8.0000E-04  8.0000E-04  8.0000E-04  8.0000E-04  8.0000E-04  8.0000E-04  8.0000E-04  8.0000E-04
       8.0000E-04  8.0000E-04  8.0000E-04  8.0000E-04  8.0000E-04  8.0000E-04  8.0000E-04  8.0000E-04  8.0000E-04  8.0000E-04
       8.0000E-04  8.0000E-04  8.0000E-04  8.0000E-04  8.0000E-04  8.0000E-04  8.0000E-04  8.0000E-04  8.0000E-04  8.0000E-04
       8.0000E-04  8.0000E-04   0.000       0.000       0.000       0.000       0.000       0.000       0.000    
  33    0.000       0.000       0.000       0.000       0.000       0.000       0.000       0.000       0.000       0.000    
        0.000       0.000       0.000       0.000       0.000      1.5200E-03  1.4400E-03  1.4400E-03  1.2800E-03  1.2800E-03
       1.2000E-03  1.1200E-03  1.0400E-03  9.6000E-04  8.8000E-04  8.8000E-04  8.8000E-04  8.0000E-04  8.0000E-04  8.0000E-04
       8.0000E-04  8.0000E-04  8.0000E-04  8.0000E-04  8.0000E-04  8.0000E-04  8.0000E-04  8.0000E-04  8.0000E-04  8.0000E-04
       8.0000E-04  8.0000E-04  8.0000E-04  8.0000E-04  8.0000E-04  8.0000E-04  8.0000E-04  8.0000E-04  8.0000E-04  8.0000E-04
       8.0000E-04  8.0000E-04  8.0000E-04  8.0000E-04  8.0000E-04  8.0000E-04  8.0000E-04  8.0000E-04  8.0000E-04  8.0000E-04
       8.0000E-04  8.0000E-04  8.0000E-04  8.0000E-04  8.0000E-04  8.0000E-04  8.0000E-04  8.0000E-04  8.0000E-04  8.0000E-04
       8.0000E-04  8.0000E-04  8.0000E-04   0.000       0.000       0.000       0.000       0.000       0.000    
  34    0.000       0.000       0.000       0.000       0.000       0.000       0.000       0.000       0.000       0.000    
        0.000       0.000       0.000       0.000      1.5200E-03  1.5200E-03  1.4400E-03  1.3600E-03  1.2800E-03  1.2000E-03
       1.2000E-03  1.1200E-03  9.6000E-04  8.8000E-04  8.8000E-04  8.8000E-04  8.8000E-04  8.0000E-04  8.0000E-04  8.0000E-04
       8.0000E-04  8.0000E-04  8.0000E-04  8.0000E-04  8.0000E-04  8.0000E-04  8.0000E-04  8.0000E-04  8.0000E-04  8.0000E-04
       8.0000E-04  8.0000E-04  8.0000E-04  8.0000E-04  8.0000E-04  8.0000E-04  8.0000E-04  8.0000E-04  8.0000E-04  8.0000E-04
       8.0000E-04  8.0000E-04  8.0000E-04  8.0000E-04  8.0000E-04  8.0000E-04  8.0000E-04  8.0000E-04  8.0000E-04  8.0000E-04
       8.0000E-04  8.0000E-04  8.0000E-04  8.0000E-04  8.0000E-04  8.0000E-04  8.0000E-04  8.0000E-04  8.0000E-04  8.0000E-04
       8.0000E-04  8.0000E-04  8.0000E-04   0.000       0.000       0.000       0.000       0.000       0.000    
  35    0.000       0.000       0.000       0.000       0.000       0.000       0.000       0.000       0.000       0.000    
        0.000       0.000       0.000      1.6000E-03  1.5200E-03  1.5200E-03  1.3600E-03  1.2800E-03  1.2000E-03  1.2000E-03
       1.1200E-03  1.0400E-03  9.6000E-04  8.8000E-04  8.8000E-04  8.0000E-04  8.0000E-04  8.0000E-04  8.0000E-04  8.0000E-04
       8.0000E-04  8.0000E-04  8.0000E-04  8.0000E-04  8.0000E-04  8.0000E-04  8.0000E-04  8.0000E-04  8.0000E-04  8.0000E-04
       8.0000E-04  8.0000E-04  8.0000E-04  8.0000E-04  8.0000E-04  8.0000E-04  8.0000E-04  8.0000E-04  8.0000E-04  8.0000E-04
       8.0000E-04  8.0000E-04  8.0000E-04  8.0000E-04  8.0000E-04  8.0000E-04  8.0000E-04  8.0000E-04  8.0000E-04  8.0000E-04
       8.0000E-04  8.0000E-04  8.0000E-04  8.0000E-04  8.0000E-04  8.0000E-04  8.0000E-04  8.0000E-04  8.0000E-04  8.0000E-04
       8.0000E-04  8.0000E-04  8.0000E-04  8.0000E-04   0.000       0.000       0.000       0.000       0.000    
  36    0.000       0.000       0.000       0.000       0.000       0.000       0.000       0.000       0.000       0.000    
        0.000       0.000       0.000      1.5200E-03  1.5200E-03  1.4400E-03  1.3600E-03  1.2800E-03  1.2000E-03  1.1200E-03
       1.1200E-03  1.0400E-03  9.6000E-04  8.8000E-04  8.8000E-04  8.0000E-04  8.0000E-04  8.0000E-04  8.0000E-04  8.0000E-04
       8.0000E-04  8.0000E-04  8.0000E-04  8.0000E-04  8.0000E-04  8.0000E-04  8.0000E-04  8.0000E-04  8.0000E-04  8.0000E-04
       8.0000E-04  8.0000E-04  8.0000E-04  8.0000E-04  8.0000E-04  8.0000E-04  8.0000E-04  8.0000E-04  8.0000E-04  8.0000E-04
       8.0000E-04  8.0000E-04  8.0000E-04  8.0000E-04  8.0000E-04  8.0000E-04  8.0000E-04  8.0000E-04  8.0000E-04  8.0000E-04
       8.0000E-04  8.0000E-04  8.0000E-04  8.0000E-04  8.0000E-04  8.0000E-04  8.0000E-04  8.0000E-04  8.0000E-04  8.0000E-04
       8.0000E-04  8.0000E-04  8.0000E-04  8.0000E-04  8.0000E-04   0.000       0.000       0.000       0.000    
  37    0.000       0.000       0.000       0.000       0.000       0.000       0.000       0.000       0.000       0.000    
        0.000       0.000      1.5200E-03  1.5200E-03  1.4400E-03  1.4400E-03  1.3600E-03  1.2800E-03  1.2000E-03  1.2000E-03
       1.1200E-03  1.0400E-03  9.6000E-04  9.6000E-04  8.8000E-04  8.8000E-04  8.0000E-04  8.0000E-04  8.0000E-04  8.0000E-04
       8.0000E-04  8.0000E-04  8.0000E-04  8.0000E-04  8.0000E-04  8.0000E-04  8.0000E-04  8.0000E-04  8.0000E-04  8.0000E-04
       8.0000E-04  8.0000E-04  8.0000E-04  8.0000E-04  8.0000E-04  8.0000E-04  8.0000E-04  8.0000E-04  8.0000E-04  8.0000E-04
       8.0000E-04  8.0000E-04  8.0000E-04  8.0000E-04  8.0000E-04  8.0000E-04  8.0000E-04  8.0000E-04  8.0000E-04  8.0000E-04
       8.0000E-04  8.0000E-04  8.0000E-04  8.0000E-04  8.0000E-04  8.0000E-04  8.0000E-04  8.0000E-04  8.0000E-04  8.0000E-04
       8.0000E-04  8.0000E-04  8.0000E-04  8.0000E-04  8.0000E-04   0.000       0.000       0.000       0.000    
  38    0.000       0.000       0.000       0.000       0.000       0.000       0.000       0.000       0.000       0.000    
       1.6000E-03  1.6000E-03  1.5200E-03  1.5200E-03  1.4400E-03  1.4400E-03  1.3600E-03  1.2800E-03  1.2000E-03  1.2000E-03
       1.1200E-03  1.0400E-03  9.6000E-04  9.6000E-04  8.8000E-04  8.8000E-04  8.0000E-04  8.0000E-04  8.0000E-04  8.0000E-04
       8.0000E-04  8.0000E-04  8.0000E-04  8.0000E-04  8.0000E-04  8.0000E-04  8.0000E-04  8.0000E-04  8.0000E-04  8.0000E-04
       8.0000E-04  8.0000E-04  8.0000E-04  8.0000E-04  8.0000E-04  8.0000E-04  8.0000E-04  8.0000E-04  8.0000E-04  8.0000E-04
       8.0000E-04  8.0000E-04  8.0000E-04  8.0000E-04  8.0000E-04  8.0000E-04  8.0000E-04  8.0000E-04  8.0000E-04  8.0000E-04
       8.0000E-04  8.0000E-04  8.0000E-04  8.0000E-04  8.0000E-04  8.0000E-04  8.0000E-04  8.0000E-04  8.0000E-04  8.0000E-04
       8.0000E-04  8.0000E-04  8.0000E-04  8.0000E-04  8.0000E-04  8.0000E-04   0.000       0.000       0.000    
  39    0.000       0.000       0.000       0.000       0.000       0.000       0.000      1.8400E-03  1.7600E-03  1.6800E-03
       1.6000E-03  1.6000E-03  1.5200E-03  1.5200E-03  1.4400E-03  1.4400E-03  1.3600E-03  1.2800E-03  1.2000E-03  1.2000E-03
       1.1200E-03  1.0400E-03  9.6000E-04  9.6000E-04  9.6000E-04  8.8000E-04  8.0000E-04  8.0000E-04  8.0000E-04  8.0000E-04
       8.0000E-04  8.0000E-04  8.0000E-04  8.0000E-04  8.0000E-04  8.0000E-04  8.0000E-04  8.0000E-04  8.0000E-04  8.0000E-04
       8.0000E-04  8.0000E-04  8.0000E-04  8.0000E-04  8.0000E-04  8.0000E-04  8.0000E-04  8.0000E-04  8.0000E-04  8.0000E-04
       8.0000E-04  8.0000E-04  8.0000E-04  8.0000E-04  8.0000E-04  8.0000E-04  8.0000E-04  8.0000E-04  8.0000E-04  8.0000E-04
       8.0000E-04  8.0000E-04  8.0000E-04  8.0000E-04  8.0000E-04  8.0000E-04  8.0000E-04  8.0000E-04  8.0000E-04  8.0000E-04
       8.0000E-04  8.0000E-04  8.0000E-04  8.0000E-04  8.0000E-04  8.0000E-04   0.000       0.000       0.000    
  40    0.000       0.000       0.000       0.000       0.000       0.000      2.0000E-03  1.8400E-03  1.7600E-03  1.6800E-03
       1.6000E-03  1.5200E-03  1.5200E-03  1.4400E-03  1.4400E-03  1.3600E-03  1.3600E-03  1.2800E-03  1.2800E-03  1.2000E-03
       1.1200E-03  1.0400E-03  9.6000E-04  9.6000E-04  9.6000E-04  8.8000E-04  8.8000E-04  8.0000E-04  8.0000E-04  8.0000E-04
       8.0000E-04  8.0000E-04  8.0000E-04  8.0000E-04  8.0000E-04  8.0000E-04  8.0000E-04  8.0000E-04  8.0000E-04  8.0000E-04
       8.0000E-04  8.0000E-04  8.0000E-04  8.0000E-04  8.0000E-04  8.0000E-04  8.0000E-04  8.0000E-04  8.0000E-04  8.0000E-04
       8.0000E-04  8.0000E-04  8.0000E-04  8.0000E-04  8.0000E-04  8.0000E-04  8.0000E-04  8.0000E-04  8.0000E-04  8.0000E-04
       8.0000E-04  8.0000E-04  8.0000E-04  8.0000E-04  8.0000E-04  8.0000E-04  8.0000E-04  8.0000E-04  8.0000E-04  8.0000E-04
       8.0000E-04  8.0000E-04  8.0000E-04  8.0000E-04  8.0000E-04  8.0000E-04   0.000       0.000       0.000    
  41    0.000       0.000       0.000       0.000       0.000      2.0800E-03  2.0000E-03  1.8400E-03  1.7600E-03  1.6800E-03
       1.6000E-03  1.5200E-03  1.5200E-03  1.4400E-03  1.4400E-03  1.4400E-03  1.3600E-03  1.2800E-03  1.2800E-03  1.2000E-03
       1.1200E-03  1.0400E-03  1.0400E-03  1.0400E-03  1.0400E-03  1.0400E-03  8.8000E-04  8.0000E-04  8.8000E-04  8.0000E-04
       8.0000E-04  8.0000E-04  8.0000E-04  8.0000E-04  8.0000E-04  8.0000E-04  8.0000E-04  8.0000E-04  8.0000E-04  8.0000E-04
       8.0000E-04  8.0000E-04  8.0000E-04  8.0000E-04  8.0000E-04  8.0000E-04  8.0000E-04  8.0000E-04  8.0000E-04  8.0000E-04
       8.0000E-04  8.0000E-04  8.0000E-04  8.0000E-04  8.0000E-04  8.0000E-04  8.0000E-04  8.0000E-04  8.0000E-04  8.0000E-04
       8.0000E-04  8.0000E-04  8.0000E-04  8.0000E-04  8.0000E-04  8.0000E-04  8.0000E-04  8.0000E-04  8.0000E-04  8.0000E-04
       8.0000E-04  8.0000E-04  8.0000E-04  8.0000E-04  8.0000E-04   0.000       0.000       0.000       0.000    
  42    0.000       0.000       0.000       0.000       0.000      2.0800E-03  2.0000E-03  1.8400E-03  1.7600E-03  1.6800E-03
       1.6000E-03  1.5200E-03  1.5200E-03  1.4400E-03  1.5200E-03  1.4400E-03  1.3600E-03  1.3600E-03  1.2800E-03  1.2800E-03
       1.2000E-03  1.1200E-03  1.1200E-03  1.0400E-03  1.0400E-03  1.0400E-03  9.6000E-04  8.8000E-04  8.8000E-04  8.0000E-04
       8.0000E-04  8.0000E-04  8.0000E-04  8.0000E-04  8.0000E-04  8.0000E-04  8.0000E-04  8.0000E-04  8.0000E-04  8.0000E-04
       8.0000E-04  8.0000E-04  8.0000E-04  8.0000E-04  8.0000E-04  8.0000E-04  8.0000E-04  8.0000E-04  8.0000E-04  8.0000E-04
       8.0000E-04  8.0000E-04  8.0000E-04  8.0000E-04  8.0000E-04  8.0000E-04  8.0000E-04  8.0000E-04  8.0000E-04  8.0000E-04
       8.0000E-04  8.0000E-04  8.0000E-04  8.0000E-04  8.0000E-04  8.0000E-04  8.0000E-04  8.0000E-04  8.0000E-04  8.0000E-04
       8.0000E-04  8.0000E-04  8.0000E-04  8.0000E-04  8.0000E-04   0.000       0.000       0.000       0.000    
  43    0.000       0.000       0.000       0.000       0.000      2.0800E-03  2.0800E-03  1.8400E-03  1.7600E-03  1.7600E-03
       1.6800E-03  1.6000E-03  1.5200E-03  1.5200E-03  1.5200E-03  1.5200E-03  1.5200E-03  1.4400E-03  1.3600E-03  1.2800E-03
       1.2000E-03  1.1200E-03  1.1200E-03  1.0400E-03  1.0400E-03  9.6000E-04  9.6000E-04  8.8000E-04  8.8000E-04  8.8000E-04
       8.0000E-04  8.0000E-04  8.0000E-04  8.0000E-04  8.0000E-04  8.0000E-04  8.0000E-04  8.0000E-04  8.0000E-04  8.0000E-04
       8.0000E-04  8.0000E-04  8.0000E-04  8.0000E-04  8.0000E-04  8.0000E-04  8.0000E-04  8.0000E-04  8.0000E-04  8.0000E-04
       8.0000E-04  8.0000E-04  8.0000E-04  8.0000E-04  8.0000E-04  8.0000E-04  8.0000E-04  8.0000E-04  8.0000E-04  8.0000E-04
       8.0000E-04  8.0000E-04  8.0000E-04  8.0000E-04  8.0000E-04  8.0000E-04  8.0000E-04  8.0000E-04  8.0000E-04  8.0000E-04
       8.0000E-04  8.0000E-04  8.0000E-04  8.0000E-04  8.0000E-04   0.000       0.000       0.000       0.000    
  44    0.000       0.000       0.000       0.000       0.000      2.0800E-03  2.0800E-03  2.0000E-03  1.9200E-03  1.7600E-03
       1.6800E-03  1.6000E-03  1.6000E-03  1.6000E-03  1.6000E-03  1.5200E-03  1.5200E-03  1.4400E-03  1.3600E-03  1.2800E-03
       1.2000E-03  1.2000E-03  1.1200E-03  1.0400E-03  1.0400E-03  1.0400E-03  9.6000E-04  9.6000E-04  8.8000E-04  8.8000E-04
       8.0000E-04  8.0000E-04  8.0000E-04  8.0000E-04  8.0000E-04  8.0000E-04  8.0000E-04  8.0000E-04  8.0000E-04  8.0000E-04
       8.0000E-04  8.0000E-04  8.0000E-04  8.0000E-04  8.0000E-04  8.0000E-04  8.0000E-04  8.0000E-04  8.0000E-04  8.0000E-04
       8.0000E-04  8.0000E-04  8.0000E-04  8.0000E-04  8.0000E-04  8.0000E-04  8.0000E-04  8.0000E-04  8.0000E-04  8.0000E-04
       8.0000E-04  8.0000E-04  8.0000E-04  8.0000E-04  8.0000E-04  8.0000E-04  8.0000E-04  8.0000E-04  8.0000E-04  8.0000E-04
       8.0000E-04  8.0000E-04  8.0000E-04  8.0000E-04  8.0000E-04   0.000       0.000       0.000       0.000    
  45    0.000       0.000       0.000      2.0800E-03   0.000      2.0800E-03  2.0800E-03  2.0000E-03  1.8400E-03  1.7600E-03
       1.6800E-03  1.6000E-03  1.6000E-03  1.6000E-03  1.5200E-03  1.5200E-03  1.5200E-03  1.5200E-03  1.4400E-03  1.2800E-03
       1.2000E-03  1.2000E-03  1.2000E-03  1.1200E-03  1.1200E-03  1.0400E-03  1.0400E-03  9.6000E-04  9.6000E-04  8.8000E-04
       8.0000E-04  8.0000E-04  8.0000E-04  8.0000E-04  8.0000E-04  8.0000E-04  8.0000E-04  8.0000E-04  8.0000E-04  8.0000E-04
       8.0000E-04  8.0000E-04  8.0000E-04  8.0000E-04  8.0000E-04  8.0000E-04  8.0000E-04  8.0000E-04  8.0000E-04  8.0000E-04
       8.0000E-04  8.0000E-04  8.0000E-04  8.0000E-04  8.0000E-04  8.0000E-04  8.0000E-04  8.0000E-04  8.0000E-04  8.0000E-04
       8.0000E-04  8.0000E-04  8.0000E-04  8.0000E-04  8.0000E-04  8.0000E-04  8.0000E-04  8.0000E-04  8.0000E-04  8.0000E-04
       8.0000E-04  8.0000E-04  8.0000E-04  8.0000E-04  8.0000E-04   0.000       0.000       0.000       0.000    
  46    0.000       0.000       0.000      2.0800E-03  2.0800E-03  2.0800E-03  2.0000E-03  1.9200E-03  1.8400E-03  1.7600E-03
       1.6000E-03  1.6000E-03  1.6000E-03  1.5200E-03  1.4400E-03  1.4400E-03  1.4400E-03  1.4400E-03  1.4400E-03  1.3600E-03
       1.2800E-03  1.2800E-03  1.2000E-03  1.1200E-03  1.2000E-03  1.1200E-03  1.0400E-03  1.0400E-03  9.6000E-04  8.8000E-04
       8.8000E-04  8.8000E-04  8.0000E-04  8.0000E-04  8.0000E-04  8.0000E-04  8.0000E-04  8.0000E-04  8.8000E-04  8.8000E-04
       8.0000E-04  8.0000E-04  8.0000E-04  8.0000E-04  8.0000E-04  8.0000E-04  8.0000E-04  8.0000E-04  8.0000E-04  8.0000E-04
       8.0000E-04  8.0000E-04  8.0000E-04  8.0000E-04  8.0000E-04  8.0000E-04  8.0000E-04  8.0000E-04  8.0000E-04  8.0000E-04
       8.0000E-04  8.0000E-04  8.0000E-04  8.0000E-04  8.0000E-04  8.0000E-04  8.0000E-04  8.0000E-04  8.0000E-04  8.0000E-04
       8.0000E-04  8.0000E-04  8.0000E-04  8.0000E-04  8.0000E-04   0.000       0.000       0.000       0.000    
  47    0.000       0.000       0.000      2.0800E-03  2.0800E-03  2.0000E-03  1.9200E-03  1.8400E-03  1.7600E-03  1.6800E-03
       1.6000E-03  1.5200E-03  1.5200E-03  1.4400E-03  1.4400E-03  1.4400E-03  1.4400E-03  1.4400E-03  1.3600E-03  1.4400E-03
       1.3600E-03  1.3600E-03  1.2800E-03  1.2000E-03  1.2000E-03  1.1200E-03  1.0400E-03  1.0400E-03  9.6000E-04  9.6000E-04
       8.8000E-04  8.8000E-04  8.0000E-04  8.0000E-04  8.0000E-04  8.0000E-04  8.0000E-04  8.8000E-04  8.8000E-04  8.8000E-04
       8.0000E-04  8.0000E-04  8.0000E-04  8.0000E-04  8.0000E-04  8.0000E-04  8.0000E-04  8.0000E-04  8.0000E-04  8.0000E-04
       8.0000E-04  8.0000E-04  8.0000E-04  8.0000E-04  8.0000E-04  8.0000E-04  8.0000E-04  8.0000E-04  8.0000E-04  8.0000E-04
       8.0000E-04  8.0000E-04  8.0000E-04  8.0000E-04  8.0000E-04  8.0000E-04  8.0000E-04  8.0000E-04  8.0000E-04  8.0000E-04
       8.0000E-04  8.0000E-04  8.0000E-04  8.0000E-04  8.0000E-04   0.000       0.000       0.000       0.000    
  48    0.000       0.000       0.000      2.0800E-03  2.0800E-03  2.0800E-03  2.0000E-03  1.9200E-03  1.7600E-03  1.6800E-03
       1.6000E-03  1.5200E-03  1.5200E-03  1.5200E-03  1.4400E-03  1.4400E-03  1.4400E-03  1.4400E-03  1.4400E-03  1.4400E-03
       1.4400E-03  1.3600E-03  1.2800E-03  1.2800E-03  1.2000E-03  1.1200E-03  1.0400E-03  1.0400E-03  9.6000E-04  9.6000E-04
       8.8000E-04  8.8000E-04  8.0000E-04  8.0000E-04  8.0000E-04  8.0000E-04  8.0000E-04  8.0000E-04  8.0000E-04  8.0000E-04
       8.0000E-04  8.0000E-04  8.0000E-04  8.0000E-04  8.0000E-04  8.0000E-04  8.0000E-04  8.0000E-04  8.0000E-04  8.8000E-04
       8.8000E-04  8.8000E-04  8.8000E-04  8.8000E-04  8.0000E-04  8.0000E-04  8.0000E-04  8.0000E-04  8.0000E-04  8.0000E-04
       8.0000E-04  8.0000E-04  8.0000E-04  8.0000E-04  8.0000E-04  8.0000E-04  8.0000E-04  8.0000E-04  8.0000E-04  8.0000E-04
       8.0000E-04  8.0000E-04  8.0000E-04  8.0000E-04  8.0000E-04  8.0000E-04   0.000       0.000       0.000    
  49    0.000       0.000       0.000      2.1600E-03  2.0800E-03  2.0800E-03  1.9200E-03  1.8400E-03  1.7600E-03  1.6800E-03
       1.6000E-03  1.5200E-03  1.5200E-03  1.5200E-03  1.4400E-03  1.5200E-03  1.5200E-03  1.5200E-03  1.5200E-03  1.4400E-03
       1.4400E-03  1.3600E-03  1.2800E-03  1.2800E-03  1.2000E-03  1.1200E-03  1.0400E-03  1.0400E-03  9.6000E-04  9.6000E-04
       8.8000E-04  8.8000E-04  8.0000E-04  8.0000E-04  8.8000E-04  8.0000E-04  8.0000E-04  8.0000E-04  8.0000E-04  8.0000E-04
       8.0000E-04  8.8000E-04  8.0000E-04  8.0000E-04  8.0000E-04  8.0000E-04  8.0000E-04  8.0000E-04  8.8000E-04  8.8000E-04
       9.6000E-04  9.6000E-04  9.6000E-04  8.8000E-04  8.0000E-04  8.0000E-04  8.0000E-04  8.0000E-04  8.0000E-04  8.0000E-04
       8.0000E-04  8.0000E-04  8.0000E-04  8.0000E-04  8.0000E-04  8.0000E-04  8.0000E-04  8.0000E-04  8.0000E-04  8.0000E-04
       8.0000E-04  8.0000E-04  8.0000E-04  8.0000E-04  8.0000E-04  8.0000E-04   0.000       0.000       0.000    
  50    0.000       0.000       0.000      2.1600E-03  2.0800E-03  2.0000E-03  1.9200E-03  1.8400E-03  1.6800E-03  1.6800E-03
       1.6000E-03  1.5200E-03  1.5200E-03  1.5200E-03  1.5200E-03  1.5200E-03  1.5200E-03  1.5200E-03  1.5200E-03  1.4400E-03
       1.3600E-03  1.3600E-03  1.2800E-03  1.2000E-03  1.2000E-03  1.1200E-03  1.1200E-03  1.0400E-03  1.0400E-03  1.0400E-03
       9.6000E-04  9.6000E-04  8.8000E-04  8.8000E-04  8.8000E-04  8.8000E-04  8.0000E-04  8.0000E-04  8.0000E-04  8.0000E-04
       8.8000E-04  8.8000E-04  8.8000E-04  8.8000E-04  8.0000E-04  8.0000E-04  8.0000E-04  8.0000E-04  8.8000E-04  9.6000E-04
       9.6000E-04  9.6000E-04  9.6000E-04  9.6000E-04  8.8000E-04  8.0000E-04  8.0000E-04  8.0000E-04  8.0000E-04  8.0000E-04
       8.0000E-04  8.0000E-04  8.0000E-04  8.0000E-04  8.0000E-04  8.0000E-04  8.0000E-04  8.0000E-04  8.0000E-04  8.0000E-04
       8.0000E-04  8.0000E-04  8.0000E-04  8.0000E-04  8.0000E-04  8.0000E-04   0.000       0.000       0.000    
  51    0.000       0.000       0.000      2.1600E-03  2.0800E-03  1.9200E-03  1.8400E-03  1.7600E-03  1.6800E-03  1.6000E-03
       1.6000E-03  1.6000E-03  1.6000E-03  1.5200E-03  1.5200E-03  1.6000E-03  1.6000E-03  1.5200E-03  1.5200E-03  1.4400E-03
       1.3600E-03  1.3600E-03  1.2800E-03  1.2800E-03  1.2000E-03  1.2000E-03  1.1200E-03  1.1200E-03  1.0400E-03  1.0400E-03
       9.6000E-04  9.6000E-04  8.8000E-04  8.8000E-04  8.8000E-04  8.8000E-04  8.0000E-04  8.0000E-04  8.0000E-04  8.0000E-04
       8.8000E-04  8.8000E-04  8.8000E-04  8.8000E-04  8.8000E-04  8.0000E-04  8.0000E-04  8.0000E-04  8.0000E-04  9.6000E-04
       1.0400E-03  1.0400E-03  9.6000E-04  9.6000E-04  8.8000E-04  8.0000E-04  8.0000E-04  8.0000E-04  8.0000E-04  8.0000E-04
       8.0000E-04  8.0000E-04  8.0000E-04  8.0000E-04  8.0000E-04  8.0000E-04  8.0000E-04  8.0000E-04  8.0000E-04  8.0000E-04
       8.0000E-04  8.0000E-04  8.0000E-04  8.0000E-04  8.0000E-04  8.0000E-04   0.000       0.000       0.000    
  52    0.000       0.000      2.1600E-03  2.1600E-03  2.0800E-03  1.9200E-03  1.8400E-03  1.6800E-03  1.6000E-03  1.6000E-03
       1.6000E-03  1.6000E-03  1.6800E-03  1.6800E-03  1.6000E-03  1.6800E-03  1.6800E-03  1.5200E-03  1.5200E-03  1.4400E-03
       1.3600E-03  1.3600E-03  1.2800E-03  1.2800E-03  1.2800E-03  1.2000E-03  1.1200E-03  1.1200E-03  1.0400E-03  1.0400E-03
       9.6000E-04  9.6000E-04  8.8000E-04  8.8000E-04  8.8000E-04  8.8000E-04  8.0000E-04  8.0000E-04  8.0000E-04  8.0000E-04
       8.8000E-04  8.8000E-04  8.8000E-04  9.6000E-04  8.8000E-04  8.0000E-04  8.0000E-04  8.0000E-04  8.0000E-04  9.6000E-04
       1.0400E-03  1.0400E-03  1.0400E-03  1.0400E-03  9.6000E-04  8.0000E-04  8.0000E-04  8.0000E-04  8.0000E-04  8.0000E-04
       8.0000E-04  8.0000E-04  8.0000E-04  8.0000E-04  8.0000E-04  8.0000E-04  8.0000E-04  8.0000E-04  8.0000E-04  8.0000E-04
       8.0000E-04  8.0000E-04  8.0000E-04  8.0000E-04  8.0000E-04  8.0000E-04   0.000       0.000       0.000    
  53    0.000       0.000      2.2400E-03  2.1600E-03  2.0800E-03  1.9200E-03  1.8400E-03  1.7600E-03  1.6800E-03  1.6000E-03
       1.6800E-03  1.6800E-03  1.6800E-03  1.6800E-03  1.6800E-03  1.7600E-03  1.6800E-03  1.6000E-03  1.5200E-03  1.4400E-03
       1.4400E-03  1.3600E-03  1.3600E-03  1.2800E-03  1.2800E-03  1.2000E-03  1.1200E-03  1.1200E-03  1.0400E-03  1.0400E-03
       9.6000E-04  9.6000E-04  8.8000E-04  8.8000E-04  8.8000E-04  8.0000E-04  8.0000E-04  8.0000E-04  8.0000E-04  8.0000E-04
       8.8000E-04  8.8000E-04  9.6000E-04  9.6000E-04  9.6000E-04  9.6000E-04  8.0000E-04  8.0000E-04  8.0000E-04  8.0000E-04
       8.8000E-04  1.0400E-03  1.0400E-03  1.1200E-03  1.0400E-03  8.8000E-04  8.0000E-04  8.0000E-04  8.0000E-04  8.0000E-04
       8.0000E-04  8.0000E-04  8.0000E-04  8.0000E-04  8.0000E-04  8.0000E-04  8.0000E-04  8.0000E-04  8.0000E-04  8.0000E-04
       8.0000E-04  8.0000E-04  8.0000E-04  8.0000E-04  8.0000E-04  8.0000E-04  8.0000E-04   0.000       0.000    
  54    0.000       0.000      2.2400E-03  2.1600E-03  2.0800E-03  1.9200E-03  1.8400E-03  1.7600E-03  1.6800E-03  1.6800E-03
       1.6800E-03  1.7600E-03  1.7600E-03  1.7600E-03  1.7600E-03  1.8400E-03  1.7600E-03  1.6800E-03  1.6000E-03  1.5200E-03
       1.4400E-03  1.4400E-03  1.3600E-03  1.3600E-03  1.2800E-03  1.2000E-03  1.2000E-03  1.1200E-03  1.0400E-03  1.0400E-03
       9.6000E-04  9.6000E-04  8.8000E-04  8.8000E-04  8.8000E-04  8.8000E-04  8.0000E-04  8.0000E-04  8.0000E-04  8.0000E-04
       8.8000E-04  8.8000E-04  9.6000E-04  1.0400E-03  1.0400E-03  9.6000E-04  8.8000E-04  8.0000E-04  8.8000E-04  8.8000E-04
       9.6000E-04  1.0400E-03  1.1200E-03  1.1200E-03  1.0400E-03  8.8000E-04  8.0000E-04  8.0000E-04  8.0000E-04  8.0000E-04
       8.0000E-04  8.0000E-04  8.0000E-04  8.0000E-04  8.0000E-04  8.0000E-04  8.0000E-04  8.0000E-04  8.0000E-04  8.0000E-04
       8.0000E-04  8.0000E-04  8.0000E-04  8.0000E-04  8.0000E-04  8.0000E-04  8.0000E-04   0.000       0.000    
  55    0.000      2.3200E-03  2.2400E-03  2.1600E-03  2.0000E-03  1.9200E-03  1.8400E-03  1.7600E-03  1.7600E-03  1.6800E-03
       1.7600E-03  1.7600E-03  1.8400E-03  1.8400E-03  1.8400E-03  1.8400E-03  1.8400E-03  1.7600E-03  1.6800E-03  1.5200E-03
       1.5200E-03  1.4400E-03  1.3600E-03  1.3600E-03  1.2800E-03  1.3600E-03  1.2800E-03  1.1200E-03  1.0400E-03  1.0400E-03
       1.0400E-03  9.6000E-04  9.6000E-04  8.8000E-04  8.8000E-04  8.8000E-04  8.0000E-04  8.0000E-04  8.0000E-04  8.8000E-04
       8.8000E-04  9.6000E-04  9.6000E-04  1.0400E-03  1.1200E-03  1.0400E-03  9.6000E-04  8.8000E-04  8.8000E-04  8.8000E-04
       9.6000E-04  1.0400E-03  1.1200E-03  1.1200E-03  1.0400E-03  8.8000E-04  8.8000E-04  8.0000E-04  8.0000E-04  8.0000E-04
       8.0000E-04  8.0000E-04  8.0000E-04  8.0000E-04  8.0000E-04  8.0000E-04  8.0000E-04  8.0000E-04  8.0000E-04  8.0000E-04
       8.0000E-04  8.0000E-04  8.0000E-04  8.0000E-04  8.0000E-04  8.0000E-04  8.0000E-04   0.000       0.000    
  56    0.000      2.3200E-03  2.1600E-03  2.0800E-03  2.0800E-03  1.9200E-03  1.9200E-03  1.8400E-03  1.7600E-03  1.7600E-03
       1.7600E-03  1.8400E-03  1.8400E-03  1.8400E-03  1.8400E-03  1.9200E-03  1.9200E-03  1.8400E-03  1.6800E-03  1.6000E-03
       1.6000E-03  1.5200E-03  1.4400E-03  1.4400E-03  1.3600E-03  1.3600E-03  1.2800E-03  1.2000E-03  1.1200E-03  1.0400E-03
       1.0400E-03  9.6000E-04  9.6000E-04  8.8000E-04  8.8000E-04  8.8000E-04  8.0000E-04  8.0000E-04  8.8000E-04  8.8000E-04
       9.6000E-04  9.6000E-04  1.0400E-03  1.0400E-03  1.1200E-03  1.1200E-03  9.6000E-04  8.8000E-04  9.6000E-04  8.8000E-04
       9.6000E-04  1.0400E-03  1.1200E-03  1.1200E-03  1.0400E-03  9.6000E-04  8.8000E-04  8.0000E-04  8.0000E-04  8.0000E-04
       8.0000E-04  8.0000E-04  8.0000E-04  8.0000E-04  8.0000E-04  8.0000E-04  8.0000E-04  8.0000E-04  8.0000E-04  8.0000E-04
       8.0000E-04  8.0000E-04  8.0000E-04  8.0000E-04  8.0000E-04  8.0000E-04  8.0000E-04   0.000       0.000    
  57   2.3200E-03  2.2400E-03  2.0800E-03  2.0800E-03  2.0800E-03  2.0000E-03  2.0000E-03  1.9200E-03  1.8400E-03  1.7600E-03
       1.8400E-03  1.9200E-03  1.9200E-03  1.9200E-03  1.9200E-03  1.9200E-03  1.9200E-03  1.9200E-03  1.8400E-03  1.7600E-03
       1.6800E-03  1.6000E-03  1.5200E-03  1.4400E-03  1.3600E-03  1.3600E-03  1.2800E-03  1.2000E-03  1.1200E-03  1.0400E-03
       1.0400E-03  9.6000E-04  9.6000E-04  8.8000E-04  8.8000E-04  8.8000E-04  8.8000E-04  8.8000E-04  8.8000E-04  9.6000E-04
       9.6000E-04  1.0400E-03  1.1200E-03  1.1200E-03  1.2000E-03  1.1200E-03  1.0400E-03  9.6000E-04  9.6000E-04  9.6000E-04
       9.6000E-04  1.0400E-03  1.1200E-03  1.1200E-03  1.1200E-03  1.0400E-03  9.6000E-04  8.8000E-04  8.8000E-04  8.0000E-04
       8.0000E-04  8.0000E-04  8.0000E-04  8.0000E-04  8.0000E-04  8.0000E-04  8.0000E-04  8.0000E-04  8.0000E-04  8.0000E-04
       8.0000E-04  8.0000E-04  8.0000E-04  8.0000E-04  8.0000E-04  8.0000E-04  8.0000E-04   0.000       0.000    
  58   2.3200E-03  2.2400E-03  2.1600E-03  2.0800E-03  2.0800E-03  2.0800E-03  2.0000E-03  2.0000E-03  1.9200E-03  1.8400E-03
       1.8400E-03  1.9200E-03  1.9200E-03  1.9200E-03  1.9200E-03  1.9200E-03  2.0000E-03  1.9200E-03  1.8400E-03  1.7600E-03
       1.6800E-03  1.6000E-03  1.5200E-03  1.4400E-03  1.4400E-03  1.3600E-03  1.2800E-03  1.2000E-03  1.1200E-03  1.0400E-03
       1.0400E-03  9.6000E-04  8.8000E-04  8.8000E-04  8.8000E-04  8.8000E-04  8.8000E-04  8.8000E-04  8.8000E-04  8.8000E-04
       1.0400E-03  1.0400E-03  1.1200E-03  1.2000E-03  1.2000E-03  1.2000E-03  1.1200E-03  1.0400E-03  9.6000E-04  9.6000E-04
       9.6000E-04  9.6000E-04  1.0400E-03  1.1200E-03  1.1200E-03  1.0400E-03  9.6000E-04  9.6000E-04  8.8000E-04  8.0000E-04
       8.0000E-04  8.0000E-04  8.0000E-04  8.0000E-04  8.0000E-04  8.0000E-04  8.0000E-04  8.0000E-04  8.0000E-04  8.0000E-04
       8.0000E-04  8.0000E-04  8.0000E-04  8.0000E-04  8.0000E-04  8.0000E-04  8.0000E-04   0.000       0.000    
  59   2.3200E-03  2.3200E-03  2.1600E-03  2.0800E-03  2.0000E-03  2.0000E-03  2.0800E-03  2.0800E-03  1.9200E-03  1.9200E-03
       1.9200E-03  2.0000E-03  2.0000E-03  2.0000E-03  2.0000E-03  2.0000E-03  2.0000E-03  1.9200E-03  1.9200E-03  1.7600E-03
       1.7600E-03  1.6800E-03  1.6000E-03  1.5200E-03  1.4400E-03  1.3600E-03  1.2800E-03  1.2000E-03  1.1200E-03  1.0400E-03
       1.0400E-03  9.6000E-04  9.6000E-04  8.8000E-04  8.8000E-04  8.8000E-04  8.8000E-04  8.8000E-04  8.8000E-04  8.8000E-04
       9.6000E-04  1.0400E-03  1.0400E-03  1.1200E-03  1.2000E-03  1.2000E-03  1.2000E-03  1.1200E-03  1.0400E-03  1.0400E-03
       1.0400E-03  1.0400E-03  1.0400E-03  1.2000E-03  1.2000E-03  1.0400E-03  1.0400E-03  9.6000E-04  9.6000E-04  8.8000E-04
       8.8000E-04  8.8000E-04  8.0000E-04  8.0000E-04  8.0000E-04  8.0000E-04  8.0000E-04  8.0000E-04  8.0000E-04  8.0000E-04
       8.0000E-04  8.0000E-04  8.0000E-04  8.0000E-04  8.0000E-04  8.0000E-04  8.0000E-04  8.0000E-04   0.000    
  60    0.000      2.3200E-03  2.2400E-03  2.0800E-03  2.0800E-03  2.0000E-03  2.1600E-03  2.1600E-03  2.0800E-03  2.0000E-03
       2.0000E-03  2.0800E-03  2.0800E-03   0.000       0.000       0.000      2.0800E-03  2.0000E-03  1.9200E-03  1.8400E-03
       1.7600E-03  1.7600E-03  1.6000E-03  1.5200E-03  1.4400E-03  1.4400E-03  1.3600E-03  1.2800E-03  1.2000E-03  1.1200E-03
       1.0400E-03  1.0400E-03  9.6000E-04  9.6000E-04  8.8000E-04  8.8000E-04  8.8000E-04  8.8000E-04  8.8000E-04  8.8000E-04
       9.6000E-04  1.0400E-03  1.0400E-03  1.1200E-03  1.2000E-03  1.2800E-03  1.2800E-03  1.2000E-03  1.1200E-03  1.1200E-03
       1.0400E-03  1.0400E-03  1.1200E-03  1.2000E-03  1.2000E-03  1.1200E-03  1.0400E-03  9.6000E-04  9.6000E-04  9.6000E-04
       8.8000E-04  8.8000E-04  8.8000E-04  8.0000E-04  8.0000E-04  8.0000E-04  8.0000E-04  8.0000E-04  8.0000E-04  8.0000E-04
       8.0000E-04  8.0000E-04  8.0000E-04  8.0000E-04  8.0000E-04  8.0000E-04  8.0000E-04  8.0000E-04  8.0000E-04
  61    0.000       0.000      2.3200E-03  2.2400E-03  2.1600E-03  2.0800E-03  2.1600E-03  2.2400E-03  2.1600E-03  2.1600E-03
       2.0800E-03   0.000       0.000       0.000       0.000       0.000       0.000      2.0800E-03  2.0000E-03  1.9200E-03
       1.8400E-03  1.7600E-03  1.6800E-03  1.6000E-03  1.5200E-03  1.4400E-03  1.3600E-03  1.2800E-03  1.2000E-03  1.1200E-03
       1.0400E-03  1.0400E-03  9.6000E-04  9.6000E-04  8.8000E-04  8.8000E-04  8.8000E-04  8.8000E-04  8.8000E-04  8.8000E-04
       9.6000E-04  1.0400E-03  1.1200E-03  1.1200E-03  1.2000E-03  1.2800E-03  1.2800E-03  1.2000E-03  1.1200E-03  1.1200E-03
       1.1200E-03  1.1200E-03  1.1200E-03  1.2000E-03  1.2000E-03  1.1200E-03  1.1200E-03  1.0400E-03  1.0400E-03  1.0400E-03
       9.6000E-04  9.6000E-04  9.6000E-04  9.6000E-04  8.8000E-04  8.0000E-04  8.0000E-04  8.0000E-04  8.0000E-04  8.0000E-04
       8.0000E-04  8.0000E-04  8.0000E-04  8.0000E-04  8.0000E-04  8.0000E-04  8.0000E-04  8.0000E-04  8.0000E-04
  62    0.000       0.000       0.000      2.3200E-03   0.000       0.000       0.000       0.000       0.000       0.000    
        0.000       0.000       0.000       0.000       0.000       0.000       0.000       0.000       0.000      1.9200E-03
       1.8400E-03  1.7600E-03  1.6800E-03  1.6000E-03  1.6000E-03  1.4400E-03  1.3600E-03  1.2800E-03  1.2000E-03  1.1200E-03
       1.1200E-03  1.0400E-03  9.6000E-04  9.6000E-04  8.8000E-04  8.8000E-04  8.8000E-04  8.8000E-04  8.8000E-04  9.6000E-04
       9.6000E-04  1.0400E-03  1.1200E-03  1.2000E-03  1.2800E-03  1.3600E-03  1.3600E-03  1.2800E-03  1.2000E-03  1.2000E-03
       1.1200E-03  1.1200E-03  1.1200E-03  1.2000E-03  1.2000E-03  1.2000E-03  1.2000E-03  1.1200E-03  1.1200E-03  1.0400E-03
       1.0400E-03  1.0400E-03  1.0400E-03  9.6000E-04  8.8000E-04  8.8000E-04  8.0000E-04  8.0000E-04  8.0000E-04  8.0000E-04
       8.0000E-04  8.0000E-04  8.0000E-04  8.0000E-04  8.0000E-04  8.0000E-04  8.0000E-04  8.0000E-04  8.0000E-04
  63    0.000       0.000       0.000       0.000       0.000       0.000       0.000       0.000       0.000       0.000    
        0.000       0.000       0.000       0.000       0.000       0.000       0.000       0.000       0.000      1.9200E-03
       1.8400E-03  1.6800E-03  1.6000E-03  1.6000E-03  1.5200E-03  1.4400E-03  1.3600E-03  1.2800E-03  1.2000E-03  1.1200E-03
       1.0400E-03  1.0400E-03  9.6000E-04  9.6000E-04  8.8000E-04  8.8000E-04  8.8000E-04  8.8000E-04  8.8000E-04  9.6000E-04
       9.6000E-04  9.6000E-04  1.0400E-03  1.1200E-03  1.2000E-03  1.2800E-03  1.3600E-03  1.3600E-03  1.2800E-03  1.2800E-03
       1.2000E-03  1.2000E-03  1.1200E-03  1.2000E-03  1.2000E-03  1.2800E-03  1.2000E-03  1.2000E-03  1.1200E-03  1.1200E-03
       1.1200E-03  1.1200E-03  1.0400E-03  1.0400E-03  9.6000E-04  8.8000E-04  8.8000E-04  8.0000E-04  8.0000E-04  8.0000E-04
       8.0000E-04  8.0000E-04  8.0000E-04  8.0000E-04  8.0000E-04  8.0000E-04  8.0000E-04  8.0000E-04  8.0000E-04
  64    0.000       0.000       0.000       0.000       0.000       0.000       0.000       0.000       0.000       0.000    
        0.000       0.000       0.000       0.000       0.000       0.000       0.000       0.000       0.000       0.000    
        0.000       0.000       0.000       0.000      1.5200E-03  1.4400E-03  1.3600E-03  1.2800E-03  1.2000E-03  1.1200E-03
       1.1200E-03  1.1200E-03  1.0400E-03  9.6000E-04  9.6000E-04  8.8000E-04  8.8000E-04  8.8000E-04  8.8000E-04  8.8000E-04
       9.6000E-04  9.6000E-04  1.0400E-03  1.1200E-03  1.2000E-03  1.2800E-03  1.3600E-03  1.3600E-03  1.3600E-03  1.2800E-03
       1.2000E-03  1.2000E-03  1.2000E-03  1.2000E-03  1.2800E-03  1.2800E-03  1.2800E-03  1.2000E-03  1.2000E-03  1.2000E-03
       1.2000E-03  1.1200E-03  1.1200E-03  1.0400E-03  9.6000E-04  9.6000E-04  8.8000E-04  8.0000E-04  8.0000E-04  8.0000E-04
       8.0000E-04  8.0000E-04  8.0000E-04  8.0000E-04  8.0000E-04  8.0000E-04  8.0000E-04  8.0000E-04  8.0000E-04
  65    0.000       0.000       0.000       0.000       0.000       0.000       0.000       0.000       0.000       0.000    
        0.000       0.000       0.000       0.000       0.000       0.000       0.000       0.000       0.000       0.000    
        0.000       0.000       0.000       0.000       0.000       0.000       0.000       0.000       0.000       0.000    
        0.000       0.000       0.000      9.6000E-04  9.6000E-04  8.8000E-04  8.8000E-04  8.8000E-04  8.8000E-04  9.6000E-04
       9.6000E-04  9.6000E-04  1.0400E-03  1.1200E-03  1.2000E-03   0.000       0.000       0.000       0.000      1.3600E-03
       1.2800E-03  1.2800E-03  1.2000E-03  1.2000E-03  1.2800E-03  1.2800E-03  1.3600E-03  1.2800E-03  1.2800E-03  1.2800E-03
       1.2000E-03  1.2000E-03  1.1200E-03  1.0400E-03  1.1200E-03  1.0400E-03  8.8000E-04  8.0000E-04  8.0000E-04  8.0000E-04
       8.0000E-04  8.0000E-04  8.0000E-04  8.0000E-04  8.0000E-04  8.0000E-04  8.0000E-04  8.0000E-04  8.8000E-04
  66    0.000       0.000       0.000       0.000       0.000       0.000       0.000       0.000       0.000       0.000    
        0.000       0.000       0.000       0.000       0.000       0.000       0.000       0.000       0.000       0.000    
        0.000       0.000       0.000       0.000       0.000       0.000       0.000       0.000       0.000       0.000    
        0.000       0.000       0.000       0.000       0.000      9.6000E-04  8.8000E-04   0.000       0.000       0.000    
        0.000       0.000       0.000       0.000       0.000       0.000       0.000       0.000       0.000       0.000    
       1.3600E-03  1.3600E-03  1.2800E-03  1.2800E-03  1.2800E-03  1.2800E-03  1.2800E-03  1.3600E-03  1.2800E-03  1.3600E-03
       1.3600E-03  1.2800E-03  1.2000E-03  1.2000E-03  1.1200E-03  1.0400E-03  9.6000E-04  8.8000E-04  8.0000E-04  8.0000E-04
       8.0000E-04  8.0000E-04  8.0000E-04  8.0000E-04  8.0000E-04  8.0000E-04  8.0000E-04  8.8000E-04  8.8000E-04
  67    0.000       0.000       0.000       0.000       0.000       0.000       0.000       0.000       0.000       0.000    
        0.000       0.000       0.000       0.000       0.000       0.000       0.000       0.000       0.000       0.000    
        0.000       0.000       0.000       0.000       0.000       0.000       0.000       0.000       0.000       0.000    
        0.000       0.000       0.000       0.000       0.000       0.000       0.000       0.000       0.000       0.000    
        0.000       0.000       0.000       0.000       0.000       0.000       0.000       0.000       0.000       0.000    
        0.000       0.000      1.3600E-03  1.3600E-03  1.2800E-03  1.2800E-03  1.3600E-03  1.3600E-03  1.3600E-03  1.4400E-03
       1.3600E-03  1.2800E-03  1.2800E-03  1.2000E-03  1.1200E-03  1.0400E-03  9.6000E-04  8.8000E-04  8.8000E-04  8.8000E-04
       8.0000E-04   0.000       0.000       0.000       0.000       0.000       0.000       0.000       0.000    
  68    0.000       0.000       0.000       0.000       0.000       0.000       0.000       0.000       0.000       0.000    
        0.000       0.000       0.000       0.000       0.000       0.000       0.000       0.000       0.000       0.000    
        0.000       0.000       0.000       0.000       0.000       0.000       0.000       0.000       0.000       0.000    
        0.000       0.000       0.000       0.000       0.000       0.000       0.000       0.000       0.000       0.000    
        0.000       0.000       0.000       0.000       0.000       0.000       0.000       0.000       0.000       0.000    
        0.000       0.000       0.000      1.3600E-03  1.3600E-03  1.2800E-03  1.3600E-03  1.4400E-03  1.4400E-03  1.4400E-03
       1.3600E-03  1.3600E-03  1.2800E-03  1.2000E-03  1.1200E-03  1.0400E-03  9.6000E-04  8.8000E-04   0.000       0.000    
        0.000       0.000       0.000       0.000       0.000       0.000       0.000       0.000       0.000    
  69    0.000       0.000       0.000       0.000       0.000       0.000       0.000       0.000       0.000       0.000    
        0.000       0.000       0.000       0.000       0.000       0.000       0.000       0.000       0.000       0.000    
        0.000       0.000       0.000       0.000       0.000       0.000       0.000       0.000       0.000       0.000    
        0.000       0.000       0.000       0.000       0.000       0.000       0.000       0.000       0.000       0.000    
        0.000       0.000       0.000       0.000       0.000       0.000       0.000       0.000       0.000       0.000    
        0.000       0.000       0.000       0.000       0.000       0.000       0.000       0.000       0.000       0.000    
       1.3600E-03  1.3600E-03  1.2800E-03  1.2000E-03  1.1200E-03  1.0400E-03  9.6000E-04   0.000       0.000       0.000    
        0.000       0.000       0.000       0.000       0.000       0.000       0.000       0.000       0.000    
  70    0.000       0.000       0.000       0.000       0.000       0.000       0.000       0.000       0.000       0.000    
        0.000       0.000       0.000       0.000       0.000       0.000       0.000       0.000       0.000       0.000    
        0.000       0.000       0.000       0.000       0.000       0.000       0.000       0.000       0.000       0.000    
        0.000       0.000       0.000       0.000       0.000       0.000       0.000       0.000       0.000       0.000    
        0.000       0.000       0.000       0.000       0.000       0.000       0.000       0.000       0.000       0.000    
        0.000       0.000       0.000       0.000       0.000       0.000       0.000       0.000       0.000       0.000    
        0.000      1.3600E-03  1.2800E-03  1.2000E-03  1.2000E-03  1.1200E-03   0.000       0.000       0.000       0.000    
        0.000       0.000       0.000       0.000       0.000       0.000       0.000       0.000       0.000    
  71    0.000       0.000       0.000       0.000       0.000       0.000       0.000       0.000       0.000       0.000    
        0.000       0.000       0.000       0.000       0.000       0.000       0.000       0.000       0.000       0.000    
        0.000       0.000       0.000       0.000       0.000       0.000       0.000       0.000       0.000       0.000    
        0.000       0.000       0.000       0.000       0.000       0.000       0.000       0.000       0.000       0.000    
        0.000       0.000       0.000       0.000       0.000       0.000       0.000       0.000       0.000       0.000    
        0.000       0.000       0.000       0.000       0.000       0.000       0.000       0.000       0.000       0.000    
        0.000       0.000      1.3600E-03  1.2800E-03   0.000       0.000       0.000       0.000       0.000       0.000    
        0.000       0.000       0.000       0.000       0.000       0.000       0.000       0.000       0.000    

                  ET RATE =  8.000000E-03

      ET EXTINCTION DEPTH =   1.00000    

 EXTINCTION WATER CONTENT =  5.500000E-02
 # AG pond list

 PROCESSING POND LIST

 FINISHED READING POND LIST

 PROCESSING AG STRESS PERIOD DATA
 # AG stress period

 READING AG STRESS PERIOD DATA

 READING IRRIGATION POND

 END PROCESSING AG STRESS PERIOD DATA OPTIONS
                                                   Max.-Head-Change                         Max.-Flux-Residual
  Residual-Control   Outer-Iter.   Inner-Iter.     Column Row Layer    Maximum-Head-Change  Column Row Layer    Maximum-Flux-Residual          L2-NORM 
          0                 1          11            66   40     2      -0.2878444169E+02      21   45    1         0.2042073134E+04      0.8078323412E+04
          0                 2          57            64   21     1       0.1095529839E+03      21   45    1        -0.2131328184E+05      0.5232003568E+05
          0                 3          43            52    1     1      -0.7173811147E+03      65   22    1        -0.2328575507E+06      0.7775905011E+06
          0                 4         183            40   22     1       0.1154976505E+05      66   24    1        -0.7893112963E+05      0.1031102760E+06
          0                 5          73            40   22     1      -0.1039542420E+05      27   61    1        -0.1097999270E+06      0.3701769507E+06
          0                 6         169            47   13     1      -0.1684196558E+05      63   38    1        -0.2330843611E+05      0.6984867457E+05
          0                 7         176            47   13     1       0.8513891243E+05      58   63    1         0.3530444887E+05      0.1435292410E+06
          0                 8         113            47   13     1      -0.5379056695E+05      47   13    1        -0.7741539096E+06      0.9490815440E+06
          0                 9         190            65   64     1       0.1301134304E+06      47   13    1        -0.1680383922E+06      0.3517230490E+06
          0                10         197            65   64     1      -0.9480866893E+05      65   64    1        -0.1678070402E+07      0.4650188647E+07
                                                   Max.-Head-Change                         Max.-Flux-Residual
  Residual-Control   Outer-Iter.   Inner-Iter.     Column Row Layer    Maximum-Head-Change  Column Row Layer    Maximum-Flux-Residual          L2-NORM 
          0                11          92            26   26     1      -0.4438085367E+05      65   64    1        -0.3658752260E+06      0.1073771652E+07
          0                12         200            65   70     1       0.3117998615E+05      61   46    1        -0.2213180347E+06      0.3516928632E+06
          0                13         200            33   24     1       0.6267096798E+05      22   55    1        -0.2273499907E+06      0.5473164227E+06
          0                14          85            33   24     1      -0.4134998383E+05      33   24    1        -0.3821537646E+06      0.8004877732E+06
          0                15         169            46   60     1       0.1879611435E+05       5   60    1        -0.1298135371E+06      0.2697650419E+06
          0                16         176            36   20     1       0.1206898447E+05      15   56    1        -0.1943842988E+06      0.5059031487E+06
          0                17         155            63   67     1      -0.1798241545E+05      36   20    1        -0.7100557398E+05      0.2176688304E+06
          0                18         200            63   67     1       0.1133295250E+06      11   51    1        -0.1187736531E+06      0.2144568120E+06
          0                19         200            63   67     1      -0.5872975354E+05      21   45    1        -0.1133398675E+07      0.2890373916E+07
          0                20         113            10   43     1      -0.2585211242E+05      10   43    1        -0.5861141766E+06      0.1239910370E+07
                                                   Max.-Head-Change                         Max.-Flux-Residual
  Residual-Control   Outer-Iter.   Inner-Iter.     Column Row Layer    Maximum-Head-Change  Column Row Layer    Maximum-Flux-Residual          L2-NORM 
          0                21         162            53   52     1       0.2317847308E+05      10   43    1        -0.2258094151E+06      0.5069337207E+06
          0                22         183            38   23     1       0.2559995209E+05      53   52    1        -0.1171112792E+06      0.2862799063E+06
          0                23         106            38   23     1      -0.1192940653E+05      38   23    1        -0.2753758730E+06      0.3737334550E+06
          0                24         141             6   45     1      -0.9063888973E+04      38   23    1        -0.1328193226E+06      0.2276168808E+06
          0                25         167            50   64     1       0.4224169413E+05      73   55    1        -0.6938954219E+05      0.1460748857E+06
          0                26         106            50   64     1      -0.1839275578E+05      49   25    1        -0.3668780435E+06      0.5571665850E+06
          0                27         190            63   63     1       0.6374424231E+05      49   25    1        -0.1414987665E+06      0.2510034519E+06
          0                28          99            63   63     1      -0.2742658131E+05      63   63    1        -0.7632408293E+06      0.1032605230E+07
          0                29         148            23   30     1       0.3306707304E+05      63   63    1        -0.3971496232E+06      0.5413349297E+06
          0                30         155            59   64     1       0.2345880405E+05      63   63    1        -0.2066514080E+06      0.4022915822E+06
                                                   Max.-Head-Change                         Max.-Flux-Residual
  Residual-Control   Outer-Iter.   Inner-Iter.     Column Row Layer    Maximum-Head-Change  Column Row Layer    Maximum-Flux-Residual          L2-NORM 
          0                31         141            35   24     1       0.3668956671E+05      73   55    1        -0.5738028246E+06      0.7495745707E+06
          0                32          99            35   24     1      -0.1358934273E+05      11   51    1        -0.1973963629E+07      0.3256148174E+07
          0                33          99            67   67     1       0.9174569217E+04      11   51    1        -0.8027365410E+06      0.1304224695E+07
          0                34         200            35   24     1      -0.3707054575E+04      11   51    1        -0.3250768212E+06      0.5869095589E+06
          0                35          91             7   46     1       0.3754192548E+04      11   51    1        -0.1309088669E+06      0.2273322992E+06
          0                36         113            58   63     1       0.6554444723E+04      11   51    1        -0.5267795749E+05      0.1216930527E+06
          0                37         113            48   13     1       0.2505575842E+04      63   38    1        -0.4824635891E+05      0.1243092865E+06
          0                38          85            39   16     1      -0.6715379860E+04      63   38    1        -0.4208353449E+05      0.9760773982E+05
          0                39          98            38   17     1       0.1341715640E+05      63   38    1        -0.3249297634E+05      0.6765497760E+05
          0                40          92            38   17     1      -0.2786946744E+04      38   17    1        -0.1171480021E+06      0.2283308125E+06
                                                   Max.-Head-Change                         Max.-Flux-Residual
  Residual-Control   Outer-Iter.   Inner-Iter.     Column Row Layer    Maximum-Head-Change  Column Row Layer    Maximum-Flux-Residual          L2-NORM 
          0                41          99             3   56     1       0.3109375446E+04      38   17    1        -0.7308306318E+05      0.1420519317E+06
          0                42          99            66   67     1       0.1228406744E+04      38   17    1        -0.4558059043E+05      0.9319612256E+05
          0                43          85            22   30     1       0.1143099957E+04      38   17    1        -0.2847957325E+05      0.5986194525E+05
          0                44          85             3   55     1       0.2615884187E+04      38   17    1        -0.1776615089E+05      0.3652440451E+05
          0                45          92            66   64     1       0.1173338235E+04      11   51    1        -0.3797567518E+05      0.6286216234E+05
          0                46          50            27   29     1       0.5991877944E+03      11   51    1        -0.1714415414E+05      0.3849010515E+05
          0                47          43            59   67     1       0.7712356963E+03      11   51    1        -0.7584996628E+04      0.2550849774E+05
          0                48          50             1   59     1       0.5353779300E+03      59   67    1        -0.5793034194E+04      0.1786234411E+05
          0                49          50            10   58     1       0.4264391011E+03      59   67    1        -0.3933341236E+04      0.1250178638E+05
          0                50          36            62   65     1       0.1221191948E+03      73   55    1        -0.6754622177E+04      0.1143274793E+05
                                                   Max.-Head-Change                         Max.-Flux-Residual
  Residual-Control   Outer-Iter.   Inner-Iter.     Column Row Layer    Maximum-Head-Change  Column Row Layer    Maximum-Flux-Residual          L2-NORM 
          0                51          29            65   68     1       0.4379302595E+03      73   55    1        -0.3779426660E+04      0.7466367768E+04
          0                52          20            65   68     1      -0.7861500854E+02      65   68    1        -0.4053811993E+04      0.6753972069E+04
          0                53          19            65   68     1      -0.5253833496E+02      65   68    1        -0.2959490112E+04      0.4781205663E+04
          0                54          18            65   68     1      -0.4213746282E+02      65   68    1        -0.2157565659E+04      0.3406178583E+04
          0                55          18            65   68     1      -0.3003958799E+02      65   68    1        -0.1575048075E+04      0.2444593911E+04
          0                56          13            65   68     1      -0.2201248148E+02      65   68    1        -0.1149443361E+04      0.1775590964E+04
          0                57          12            65   68     1      -0.1610438465E+02      65   68    1        -0.8389205469E+03      0.1291163637E+04
          0                58          12            65   68     1      -0.1177113333E+02      65   68    1        -0.6123209871E+03      0.9497066371E+03
          0                59          12            66   69     1       0.5009538241E+01      65   68    1        -0.3325863351E+03      0.6200084640E+03
          0                60          11            62   70     1       0.2992537368E+01      65   68    1        -0.2445939905E+03      0.4495967979E+03
                                                   Max.-Head-Change                         Max.-Flux-Residual
  Residual-Control   Outer-Iter.   Inner-Iter.     Column Row Layer    Maximum-Head-Change  Column Row Layer    Maximum-Flux-Residual          L2-NORM 
          0                61          11            64   68     1       0.3075993291E+01      65   68    1        -0.1807766382E+03      0.3336291666E+03
          0                62          11            65   68     1      -0.1996651684E+01      65   68    1        -0.1324293336E+03      0.2485103453E+03
          0                63          11            65   68     1      -0.1573757969E+01      65   68    1        -0.9703066282E+02      0.1948187130E+03
          0                64          10            65   68     1      -0.1407800861E+01      66   24    1        -0.7473192230E+02      0.1480548113E+03
          0                65          10            65   68     1      -0.1065061530E+01      66   24    1        -0.6605277729E+02      0.1147488065E+03
          0                66           8            65   68     1      -0.8005209477E+00      66   24    1        -0.5933040454E+02      0.9122411759E+02
          0                67           8            65   68     1      -0.5971442782E+00      66   24    1        -0.5438388207E+02      0.7473850327E+02
          0                68           8            65   68     1      -0.4430287231E+00      66   24    1        -0.5115617469E+02      0.6365678150E+02
          0                69           7            66   24     1      -0.5698268430E+00      66   24    1        -0.5103016872E+02      0.5797272191E+02
          0                70           7            65   68     1      -0.2409383430E+00      66   24    1        -0.2560282370E+02      0.3293458922E+02
                                                   Max.-Head-Change                         Max.-Flux-Residual
  Residual-Control   Outer-Iter.   Inner-Iter.     Column Row Layer    Maximum-Head-Change  Column Row Layer    Maximum-Flux-Residual          L2-NORM 
          0                71           7            65   68     1      -0.1769076665E+00      66   24    1        -0.1466938610E+02      0.2132079918E+02
          0                72           6            65   68     1      -0.1296575030E+00      66   24    1        -0.8327666188E+01      0.1424959933E+02
          0                73           6            65   68     1      -0.9488266445E-01      66   24    1        -0.4670091199E+01      0.9814907247E+01
          0                74           6            65   68     1      -0.6935902505E-01      65   68    1        -0.3064436220E+01      0.6931923491E+01
          0                75           6            65   68     1      -0.5066053177E-01      65   68    1        -0.2233628741E+01      0.4988887222E+01
          0                76           5            65   68     1      -0.3694657507E-01      65   68    1        -0.1628001780E+01      0.3637909259E+01
          0                77           5            65   68     1      -0.2696764423E-01      65   68    1        -0.1186800589E+01      0.2675547244E+01
          0                78           5            65   68     1      -0.1967760308E-01      65   68    1        -0.8651603994E+00      0.1979319188E+01
          0                79           5            65   68     1      -0.1435486844E-01      65   68    1        -0.6306891499E+00      0.1470149383E+01
          0                80           4            65   68     1      -0.1049881992E-01      65   68    1        -0.4597658326E+00      0.1095108490E+01
                                                   Max.-Head-Change                         Max.-Flux-Residual
  Residual-Control   Outer-Iter.   Inner-Iter.     Column Row Layer    Maximum-Head-Change  Column Row Layer    Maximum-Flux-Residual          L2-NORM 
          0                81           4            65   68     1      -0.7649902047E-02      65   68    1        -0.3351228973E+00      0.8167549057E+00
          0                82           3            65   68     1      -0.5662582634E-02      65   68    1        -0.2442675574E+00      0.6108838367E+00
          0                83           3            65   68     1      -0.4105336683E-02      65   68    1        -0.1779809935E+00      0.4559569020E+00
          0                84           3            65   68     1      -0.2974777354E-02      65   68    1        -0.1296765704E+00      0.3419844090E+00
          0                85           2            65   68     1      -0.2210566589E-02      31   29    1        -0.1026182718E+00      0.2575672829E+00
          0                86           2            65   68     1      -0.1599145378E-02      31   29    1        -0.8126583322E-01      0.1931345383E+00
          0                87           2            64   68     2       0.1212275382E-02      31   29    1        -0.6434471940E-01      0.1456892969E+00
          0                88           2            64   68     2       0.9551330310E-03      31   29    1        -0.5093736003E-01      0.1104901486E+00

    ------------------------------------------------
       NWT REQUIRED           88 OUTER ITERATIONS 
       AND A TOTAL OF       6410 INNER ITERATIONS.
    ------------------------------------------------

 OUTPUT CONTROL FOR STRESS PERIOD    1   TIME STEP    1
    PRINT BUDGET
    SAVE BUDGET
    SAVE HEAD FOR ALL LAYERS



 STREAM LISTING     PERIOD      1   STEP        1

 LAYER ROW COL. STREAM  RCH.   FLOW INTO    STREAM     FLOW OUT OF   OVRLND.    DIRECT     STREAM      STREAM      STREAM     STREAM  STREAMBED   FLOW TO   CHNG. UNSAT. 
                SEG.NO.  NO.   STRM. RCH.    LOSS       STRM. RCH.   RUNOFF     PRECIP       ET         HEAD        DEPTH      WIDTH  CONDCTNC.   WAT. TAB.

   1   18   62     1     1    0.0000E+00  0.0000E+00   0.0000E+00  0.000E+00  0.000E+00  0.000E+00  2.07300E+03  0.000E+00  3.000E+00  1.909E+03  0.000E+00  0.000E+00
   1   19   63     1     2    0.0000E+00  0.0000E+00   0.0000E+00  0.000E+00  0.000E+00  0.000E+00  2.06300E+03  0.000E+00  3.000E+00  1.909E+03  0.000E+00  0.000E+00
   1   20   64     1     3    0.0000E+00 -1.0945E+01   1.0945E+01  0.000E+00  0.000E+00  0.000E+00  2.05400E+03  5.469E-04  3.000E+00  1.630E+03  0.000E+00  0.000E+00
   1   21   64     1     4    1.0945E+01 -1.1252E+01   2.2197E+01  0.000E+00  0.000E+00  0.000E+00  2.05100E+03  1.296E-03  3.000E+00  1.630E+03  0.000E+00  0.000E+00
   1   22   65     1     5    2.2197E+01  2.2197E+01   0.0000E+00  0.000E+00  0.000E+00  0.000E+00  2.04800E+03  2.958E-04  3.000E+00  9.546E+02  0.000E+00  0.000E+00
   1   20   66     2     1    0.0000E+00  0.0000E+00   0.0000E+00  0.000E+00  0.000E+00  0.000E+00  2.05300E+03  0.000E+00  3.000E+00  1.909E+03  0.000E+00  0.000E+00
   1   21   65     2     2    0.0000E+00  0.0000E+00   0.0000E+00  0.000E+00  0.000E+00  0.000E+00  2.05100E+03  0.000E+00  3.000E+00  1.630E+03  0.000E+00  0.000E+00
   1   22   65     2     3    0.0000E+00  0.0000E+00   0.0000E+00  0.000E+00  0.000E+00  0.000E+00  2.04800E+03  0.000E+00  3.000E+00  6.750E+02  0.000E+00  0.000E+00
   1   22   65     3     1    0.0000E+00  0.0000E+00   0.0000E+00  0.000E+00  0.000E+00  0.000E+00  2.04800E+03  0.000E+00  3.000E+00  6.750E+02  0.000E+00  0.000E+00
   1   23   65     3     2    0.0000E+00  0.0000E+00   0.0000E+00  0.000E+00  0.000E+00  0.000E+00  2.04500E+03  0.000E+00  3.000E+00  1.630E+03  0.000E+00  0.000E+00
   1   24   66     3     3    0.0000E+00  0.0000E+00   0.0000E+00  0.000E+00  0.000E+00  0.000E+00  2.04500E+03  0.000E+00  3.000E+00  1.909E+03  0.000E+00  0.000E+00
   1   25   67     3     4    0.0000E+00  0.0000E+00   0.0000E+00  0.000E+00  0.000E+00  0.000E+00  2.04500E+03  0.000E+00  3.000E+00  1.909E+03  0.000E+00  0.000E+00
   1   26   68     3     5    0.0000E+00  0.0000E+00   0.0000E+00  0.000E+00  0.000E+00  0.000E+00  2.04200E+03  0.000E+00  3.000E+00  1.630E+03  0.000E+00  0.000E+00
   1   27   68     3     6    0.0000E+00  0.0000E+00   0.0000E+00  0.000E+00  0.000E+00  0.000E+00  2.04100E+03  0.000E+00  3.000E+00  1.630E+03  0.000E+00  0.000E+00
   1   28   69     3     7    0.0000E+00  0.0000E+00   0.0000E+00  0.000E+00  0.000E+00  0.000E+00  2.03600E+03  0.000E+00  3.000E+00  1.630E+03  0.000E+00  0.000E+00
   1   29   69     3     8    0.0000E+00  0.0000E+00   0.0000E+00  0.000E+00  0.000E+00  0.000E+00  2.02900E+03  0.000E+00  3.000E+00  1.350E+03  0.000E+00  0.000E+00
   1   30   69     3     9    0.0000E+00  0.0000E+00   0.0000E+00  0.000E+00  0.000E+00  0.000E+00  2.02300E+03  0.000E+00  3.000E+00  1.630E+03  0.000E+00  0.000E+00
   1   31   70     3    10    0.0000E+00 -3.8665E+01   3.8665E+01  0.000E+00  0.000E+00  0.000E+00  2.01100E+03  1.024E-03  3.000E+00  1.630E+03  0.000E+00  0.000E+00
   1   32   70     3    11    3.8665E+01 -1.5554E+02   1.9421E+02  0.000E+00  0.000E+00  0.000E+00  2.00500E+03  3.617E-03  3.000E+00  1.350E+03  0.000E+00  0.000E+00
   1   33   70     3    12    1.9421E+02  6.5570E+01   1.2864E+02  0.000E+00  0.000E+00  0.000E+00  2.00300E+03  3.592E-03  3.000E+00  1.630E+03  0.000E+00  0.000E+00
   1   34   69     3    13    1.2864E+02  2.2246E+01   1.0639E+02  0.000E+00  0.000E+00  0.000E+00  1.98600E+03  2.589E-03  3.000E+00  1.630E+03  0.000E+00  0.000E+00
   1   35   69     3    14    1.0639E+02  9.7618E+00   9.6629E+01  0.000E+00  0.000E+00  0.000E+00  1.97300E+03  2.570E-03  3.000E+00  1.350E+03  0.000E+00  0.000E+00
   1   36   69     3    15    9.6629E+01  5.8342E+01   3.8287E+01  0.000E+00  0.000E+00  0.000E+00  1.96700E+03  2.204E-03  3.000E+00  1.350E+03  0.000E+00  0.000E+00
   1   37   69     3    16    3.8287E+01  3.8287E+01   0.0000E+00  0.000E+00  0.000E+00  0.000E+00  1.95900E+03  3.530E-04  3.000E+00  1.350E+03  0.000E+00  0.000E+00
   1   38   69     3    17    0.0000E+00  0.0000E+00   0.0000E+00  0.000E+00  0.000E+00  0.000E+00  1.95300E+03  0.000E+00  3.000E+00  1.630E+03  0.000E+00  0.000E+00
   1   39   70     3    18    0.0000E+00  0.0000E+00   0.0000E+00  0.000E+00  0.000E+00  0.000E+00  1.94600E+03  0.000E+00  3.000E+00  9.546E+02  0.000E+00  0.000E+00
   1   25   49     4     1    0.0000E+00 -4.3370E+01   4.3370E+01  0.000E+00  0.000E+00  0.000E+00  2.03500E+03  1.097E-03  3.000E+00  1.909E+03  0.000E+00  0.000E+00
   1   26   50     4     2    4.3370E+01 -3.5194E+01   7.8564E+01  0.000E+00  0.000E+00  0.000E+00  2.02600E+03  2.213E-03  3.000E+00  1.909E+03  0.000E+00  0.000E+00
   1   27   51     4     3    7.8564E+01 -2.2640E+01   1.0120E+02  0.000E+00  0.000E+00  0.000E+00  2.01900E+03  2.902E-03  3.000E+00  1.630E+03  0.000E+00  0.000E+00
   1   28   51     4     4    1.0120E+02 -4.3140E+01   1.4434E+02  0.000E+00  0.000E+00  0.000E+00  2.01400E+03  3.696E-03  3.000E+00  1.630E+03  0.000E+00  0.000E+00
   1   29   52     4     5    1.4434E+02 -3.5098E+00   1.4785E+02  0.000E+00  0.000E+00  0.000E+00  2.00900E+03  4.102E-03  3.000E+00  1.630E+03  0.000E+00  0.000E+00
   1   30   52     4     6    1.4785E+02  2.9466E+01   1.1839E+02  0.000E+00  0.000E+00  0.000E+00  2.00400E+03  3.666E-03  3.000E+00  1.350E+03  0.000E+00  0.000E+00
   1   31   52     4     7    1.1839E+02  2.1900E+01   9.6487E+01  0.000E+00  0.000E+00  0.000E+00  1.99900E+03  3.588E-03  3.000E+00  1.350E+03  0.000E+00  0.000E+00
   1   32   52     4     8    9.6487E+01  4.7200E+01   4.9287E+01  0.000E+00  0.000E+00  0.000E+00  1.99700E+03  2.890E-03  3.000E+00  1.630E+03  0.000E+00  0.000E+00
   1   33   53     4     9    4.9287E+01  4.9287E+01   0.0000E+00  0.000E+00  0.000E+00  0.000E+00  1.99100E+03  5.042E-04  3.000E+00  1.909E+03  0.000E+00  0.000E+00
   1   34   54     4    10    0.0000E+00  0.0000E+00   0.0000E+00  0.000E+00  0.000E+00  0.000E+00  1.98700E+03  0.000E+00  3.000E+00  1.909E+03  0.000E+00  0.000E+00
   1   35   55     4    11    0.0000E+00  0.0000E+00   0.0000E+00  0.000E+00  0.000E+00  0.000E+00  1.98200E+03  0.000E+00  3.000E+00  1.630E+03  0.000E+00  0.000E+00
   1   36   55     4    12    0.0000E+00 -2.8205E+01   2.8205E+01  0.000E+00  0.000E+00  0.000E+00  1.97600E+03  8.630E-04  3.000E+00  6.750E+02  0.000E+00  0.000E+00
   1   35   37     5     1    1.6249E+03 -4.6018E+01   1.6709E+03  0.000E+00  0.000E+00  0.000E+00  2.05401E+03  1.298E-02  3.000E+00  9.546E+02  0.000E+00  0.000E+00
   1   34   38     5     2    1.6709E+03 -8.6264E+01   1.7572E+03  0.000E+00  0.000E+00  0.000E+00  2.04602E+03  1.637E-02  3.000E+00  1.909E+03  0.000E+00  0.000E+00
   1   33   39     5     3    1.7572E+03 -1.9898E+02   1.9561E+03  0.000E+00  0.000E+00  0.000E+00  2.03802E+03  2.041E-02  3.000E+00  1.909E+03  0.000E+00  0.000E+00
   1   32   40     5     4    1.9561E+03  1.5784E+02   1.7983E+03  0.000E+00  0.000E+00  0.000E+00  2.03702E+03  2.029E-02  3.000E+00  1.630E+03  0.000E+00  0.000E+00
   1   32   41     5     5    1.7983E+03 -8.3569E+01   1.8819E+03  0.000E+00  0.000E+00  0.000E+00  2.03002E+03  1.678E-02  3.000E+00  1.350E+03  0.000E+00  0.000E+00
   1   32   42     5     6    1.8819E+03 -1.1391E+02   1.9958E+03  0.000E+00  0.000E+00  0.000E+00  2.02502E+03  2.035E-02  3.000E+00  1.350E+03  0.000E+00  0.000E+00
   1   32   43     5     7    1.9958E+03  1.3179E+01   1.9826E+03  0.000E+00  0.000E+00  0.000E+00  2.02302E+03  2.290E-02  3.000E+00  1.630E+03  0.000E+00  0.000E+00
   1   33   44     5     8    1.9826E+03 -5.9311E+01   2.0419E+03  0.000E+00  0.000E+00  0.000E+00  2.01902E+03  2.309E-02  3.000E+00  1.909E+03  0.000E+00  0.000E+00
   1   34   45     5     9    2.0419E+03  4.4017E+01   1.9979E+03  0.000E+00  0.000E+00  0.000E+00  2.01602E+03  2.120E-02  3.000E+00  1.630E+03  0.000E+00  0.000E+00
   1   34   46     5    10    1.9979E+03 -4.8681E+01   2.0466E+03  0.000E+00  0.000E+00  0.000E+00  2.01102E+03  1.936E-02  3.000E+00  1.350E+03  0.000E+00  0.000E+00
   1   34   47     5    11    2.0466E+03  2.2868E+01   2.0237E+03  0.000E+00  0.000E+00  0.000E+00  2.00702E+03  1.529E-02  3.000E+00  6.750E+02  0.000E+00  0.000E+00
   1   34   47     6     1    2.0237E+03  2.2024E+01   2.0017E+03  0.000E+00  0.000E+00  0.000E+00  2.00701E+03  1.404E-02  3.000E+00  6.750E+02  0.000E+00  0.000E+00
   1   34   48     6     2    2.0017E+03 -8.2762E+01   2.0844E+03  0.000E+00  0.000E+00  0.000E+00  2.00102E+03  1.846E-02  3.000E+00  1.630E+03  0.000E+00  0.000E+00
   1   35   49     6     3    2.0844E+03 -1.9887E+02   2.2833E+03  0.000E+00  0.000E+00  0.000E+00  1.99402E+03  2.020E-02  3.000E+00  1.630E+03  0.000E+00  0.000E+00
   1   35   50     6     4    2.2833E+03 -1.1697E+02   2.4003E+03  0.000E+00  0.000E+00  0.000E+00  1.99003E+03  2.522E-02  3.000E+00  1.350E+03  0.000E+00  0.000E+00
   1   35   51     6     5    2.4003E+03  1.0920E+02   2.2911E+03  0.000E+00  0.000E+00  0.000E+00  1.98903E+03  2.529E-02  3.000E+00  1.630E+03  0.000E+00  0.000E+00
   1   36   52     6     6    2.2911E+03 -2.0354E+01   2.3114E+03  0.000E+00  0.000E+00  0.000E+00  1.98402E+03  2.213E-02  3.000E+00  1.630E+03  0.000E+00  0.000E+00
   1   36   53     6     7    2.3114E+03 -1.6052E+02   2.4719E+03  0.000E+00  0.000E+00  0.000E+00  1.98003E+03  2.889E-02  3.000E+00  1.630E+03  0.000E+00  0.000E+00
   1   37   54     6     8    2.4719E+03  4.8758E+01   2.4232E+03  0.000E+00  0.000E+00  0.000E+00  1.98003E+03  3.072E-02  3.000E+00  1.909E+03  0.000E+00  0.000E+00
   1   36   55     6     9    2.4232E+03 -1.8518E+01   2.4417E+03  0.000E+00  0.000E+00  0.000E+00  1.97602E+03  2.325E-02  3.000E+00  9.546E+02  0.000E+00  0.000E+00
   1   36   34     7     1    2.6234E+02 -2.8868E+01   2.9121E+02  0.000E+00  0.000E+00  0.000E+00  2.07700E+03  4.047E-03  3.000E+00  9.546E+02  0.000E+00  0.000E+00
   1   35   35     7     2    2.9121E+02 -5.4564E+01   3.4577E+02  0.000E+00  0.000E+00  0.000E+00  2.06701E+03  5.797E-03  3.000E+00  1.630E+03  0.000E+00  0.000E+00
   1   35   36     7     3    3.4577E+02  7.8926E+01   2.6684E+02  0.000E+00  0.000E+00  0.000E+00  2.06201E+03  5.587E-03  3.000E+00  1.350E+03  0.000E+00  0.000E+00
   1   35   37     7     4    2.6684E+02 -3.8541E+01   3.0538E+02  0.000E+00  0.000E+00  0.000E+00  2.05400E+03  4.093E-03  3.000E+00  6.750E+02  0.000E+00  0.000E+00
   1   52   49     8     1    0.0000E+00 -1.3293E+02   1.3293E+02  0.000E+00  0.000E+00  0.000E+00  2.12100E+03  2.212E-03  3.000E+00  1.909E+03  0.000E+00  0.000E+00
   1   51   48     8     2    1.3293E+02 -1.5353E+02   2.8646E+02  0.000E+00  0.000E+00  0.000E+00  2.11701E+03  7.033E-03  3.000E+00  1.909E+03  0.000E+00  0.000E+00
   1   50   47     8     3    2.8646E+02  9.7776E+01   1.8868E+02  0.000E+00  0.000E+00  0.000E+00  2.11701E+03  5.871E-03  3.000E+00  1.630E+03  9.778E+01  0.000E+00
   1   49   47     8     4    1.8868E+02 -1.6718E+02   3.5587E+02  0.000E+00  0.000E+00  0.000E+00  2.10901E+03  5.959E-03  3.000E+00  1.630E+03  0.000E+00  0.000E+00
   1   48   46     8     5    3.5587E+02  5.9127E+01   2.9674E+02  0.000E+00  0.000E+00  0.000E+00  2.10701E+03  8.745E-03  3.000E+00  1.630E+03  0.000E+00  0.000E+00
   1   47   46     8     6    2.9674E+02  1.5047E+02   1.4627E+02  0.000E+00  0.000E+00  0.000E+00  2.10501E+03  6.550E-03  3.000E+00  1.350E+03  0.000E+00  0.000E+00
   1   46   46     8     7    1.4627E+02  8.1000E+01   6.5269E+01  0.000E+00  0.000E+00  0.000E+00  2.10300E+03  3.723E-03  3.000E+00  1.350E+03  8.100E+01  0.000E+00
   1   45   46     8     8    6.5269E+01  6.5269E+01   0.0000E+00  0.000E+00  0.000E+00  0.000E+00  2.09900E+03  5.092E-04  3.000E+00  1.350E+03  6.527E+01  0.000E+00
   1   44   46     8     9    0.0000E+00  0.0000E+00   0.0000E+00  0.000E+00  0.000E+00  0.000E+00  2.09100E+03  0.000E+00  3.000E+00  1.350E+03  0.000E+00  0.000E+00
   1   43   46     8    10    0.0000E+00  0.0000E+00   0.0000E+00  0.000E+00  0.000E+00  0.000E+00  2.08000E+03  0.000E+00  3.000E+00  1.350E+03  0.000E+00  0.000E+00
   1   42   46     8    11    0.0000E+00  0.0000E+00   0.0000E+00  0.000E+00  0.000E+00  0.000E+00  2.07200E+03  0.000E+00  3.000E+00  1.630E+03  0.000E+00  0.000E+00
   1   41   45     8    12    0.0000E+00  0.0000E+00   0.0000E+00  0.000E+00  0.000E+00  0.000E+00  2.06000E+03  0.000E+00  3.000E+00  1.630E+03  0.000E+00  0.000E+00
   1   40   45     8    13    0.0000E+00  0.0000E+00   0.0000E+00  0.000E+00  0.000E+00  0.000E+00  2.05400E+03  0.000E+00  3.000E+00  1.350E+03  0.000E+00  0.000E+00
   1   39   45     8    14    0.0000E+00  0.0000E+00   0.0000E+00  0.000E+00  0.000E+00  0.000E+00  2.04600E+03  0.000E+00  3.000E+00  1.350E+03  0.000E+00  0.000E+00
   1   38   45     8    15    0.0000E+00  0.0000E+00   0.0000E+00  0.000E+00  0.000E+00  0.000E+00  2.03500E+03  0.000E+00  3.000E+00  1.350E+03  0.000E+00  0.000E+00
   1   37   45     8    16    0.0000E+00  0.0000E+00   0.0000E+00  0.000E+00  0.000E+00  0.000E+00  2.02700E+03  0.000E+00  3.000E+00  1.630E+03  0.000E+00  0.000E+00
   1   36   46     8    17    0.0000E+00  0.0000E+00   0.0000E+00  0.000E+00  0.000E+00  0.000E+00  2.02100E+03  0.000E+00  3.000E+00  1.630E+03  0.000E+00  0.000E+00
   1   35   46     8    18    0.0000E+00  0.0000E+00   0.0000E+00  0.000E+00  0.000E+00  0.000E+00  2.01400E+03  0.000E+00  3.000E+00  1.630E+03  0.000E+00  0.000E+00
   1   34   47     8    19    0.0000E+00  0.0000E+00   0.0000E+00  0.000E+00  0.000E+00  0.000E+00  2.00700E+03  0.000E+00  3.000E+00  9.546E+02  0.000E+00  0.000E+00
   1   37   26     9     1    0.0000E+00  0.0000E+00   0.0000E+00  0.000E+00  0.000E+00  0.000E+00  2.14700E+03  0.000E+00  3.000E+00  1.350E+03  0.000E+00  0.000E+00
   1   37   27     9     2    0.0000E+00  0.0000E+00   0.0000E+00  0.000E+00  0.000E+00  0.000E+00  2.13400E+03  0.000E+00  3.000E+00  1.350E+03  0.000E+00  0.000E+00
   1   37   28     9     3    0.0000E+00 -3.5953E+01   3.5953E+01  0.000E+00  0.000E+00  0.000E+00  2.12500E+03  9.644E-04  3.000E+00  1.630E+03  0.000E+00  0.000E+00
   1   36   29     9     4    3.5953E+01  3.5953E+01   0.0000E+00  0.000E+00  0.000E+00  0.000E+00  2.11500E+03  3.336E-04  3.000E+00  1.630E+03  0.000E+00  0.000E+00
   1   36   30     9     5    0.0000E+00  0.0000E+00   0.0000E+00  0.000E+00  0.000E+00  0.000E+00  2.10700E+03  0.000E+00  3.000E+00  1.350E+03  0.000E+00  0.000E+00
   1   36   31     9     6    0.0000E+00 -9.9432E+01   9.9432E+01  0.000E+00  0.000E+00  0.000E+00  2.09800E+03  1.764E-03  3.000E+00  1.350E+03  0.000E+00  0.000E+00
   1   36   32     9     7    9.9432E+01 -5.1393E+01   1.5082E+02  0.000E+00  0.000E+00  0.000E+00  2.09100E+03  3.193E-03  3.000E+00  1.350E+03  0.000E+00  0.000E+00
   1   36   33     9     8    1.5082E+02 -5.8654E+01   2.0948E+02  0.000E+00  0.000E+00  0.000E+00  2.08400E+03  3.974E-03  3.000E+00  1.350E+03  0.000E+00  0.000E+00
   1   36   34     9     9    2.0948E+02 -2.0827E+01   2.3031E+02  0.000E+00  0.000E+00  0.000E+00  2.07700E+03  3.435E-03  3.000E+00  6.750E+02  0.000E+00  0.000E+00
   1   58   37    10     1    0.0000E+00  0.0000E+00   0.0000E+00  0.000E+00  0.000E+00  0.000E+00  2.15000E+03  0.000E+00  3.000E+00  1.350E+03  0.000E+00  0.000E+00
   1   57   37    10     2    0.0000E+00  0.0000E+00   0.0000E+00  0.000E+00  0.000E+00  0.000E+00  2.14700E+03  0.000E+00  3.000E+00  1.630E+03  0.000E+00  0.000E+00
   1   56   38    10     3    0.0000E+00  0.0000E+00   0.0000E+00  0.000E+00  0.000E+00  0.000E+00  2.14300E+03  0.000E+00  3.000E+00  1.630E+03  0.000E+00  0.000E+00
   1   55   38    10     4    0.0000E+00 -9.9041E+01   9.9041E+01  0.000E+00  0.000E+00  0.000E+00  2.13800E+03  2.166E-03  3.000E+00  1.350E+03  0.000E+00  0.000E+00
   1   54   38    10     5    9.9041E+01 -5.3398E+01   1.5244E+02  0.000E+00  0.000E+00  0.000E+00  2.13500E+03  4.129E-03  3.000E+00  1.350E+03  0.000E+00  0.000E+00
   1   53   38    10     6    1.5244E+02 -3.4006E+01   1.8644E+02  0.000E+00  0.000E+00  0.000E+00  2.13200E+03  4.939E-03  3.000E+00  1.350E+03  0.000E+00  0.000E+00
   1   52   38    10     7    1.8644E+02 -9.6487E+01   2.8293E+02  0.000E+00  0.000E+00  0.000E+00  2.12901E+03  7.175E-03  3.000E+00  1.630E+03  0.000E+00  0.000E+00
   1   51   39    10     8    2.8293E+02  8.1060E+01   2.0187E+02  0.000E+00  0.000E+00  0.000E+00  2.12801E+03  7.316E-03  3.000E+00  1.630E+03  0.000E+00  0.000E+00
   1   50   39    10     9    2.0187E+02 -3.2425E+01   2.3430E+02  0.000E+00  0.000E+00  0.000E+00  2.12501E+03  5.805E-03  3.000E+00  1.630E+03  0.000E+00  0.000E+00
   1   49   38    10    10    2.3430E+02 -1.0219E+02   3.3649E+02  0.000E+00  0.000E+00  0.000E+00  2.12101E+03  7.155E-03  3.000E+00  1.909E+03  0.000E+00  0.000E+00
   1   48   37    10    11    3.3649E+02  7.1601E+01   2.6489E+02  0.000E+00  0.000E+00  0.000E+00  2.11801E+03  6.280E-03  3.000E+00  1.909E+03  0.000E+00  0.000E+00
   1   47   36    10    12    2.6489E+02 -2.8541E+02   5.5030E+02  0.000E+00  0.000E+00  0.000E+00  2.10901E+03  7.187E-03  3.000E+00  1.630E+03  0.000E+00  0.000E+00
   1   46   36    10    13    5.5030E+02 -8.1442E+01   6.3175E+02  0.000E+00  0.000E+00  0.000E+00  2.10601E+03  9.979E-03  3.000E+00  1.350E+03  0.000E+00  0.000E+00
   1   45   36    10    14    6.3175E+02 -1.1500E+02   7.4674E+02  0.000E+00  0.000E+00  0.000E+00  2.10201E+03  1.094E-02  3.000E+00  1.350E+03  0.000E+00  0.000E+00
   1   44   36    10    15    7.4674E+02 -4.2226E+01   7.8897E+02  0.000E+00  0.000E+00  0.000E+00  2.09901E+03  1.223E-02  3.000E+00  1.350E+03  0.000E+00  0.000E+00
   1   43   36    10    16    7.8897E+02  5.3577E+01   7.3539E+02  0.000E+00  0.000E+00  0.000E+00  2.09601E+03  1.141E-02  3.000E+00  1.630E+03  0.000E+00  0.000E+00
   1   42   37    10    17    7.3539E+02  9.7776E+01   6.3762E+02  0.000E+00  0.000E+00  0.000E+00  2.09001E+03  9.014E-03  3.000E+00  1.630E+03  9.778E+01  0.000E+00
   1   41   37    10    18    6.3762E+02 -1.7024E+02   8.0785E+02  0.000E+00  0.000E+00  0.000E+00  2.08001E+03  8.786E-03  3.000E+00  1.350E+03  0.000E+00  0.000E+00
   1   40   37    10    19    8.0785E+02 -2.5002E+02   1.0579E+03  0.000E+00  0.000E+00  0.000E+00  2.07401E+03  1.288E-02  3.000E+00  1.630E+03  0.000E+00  0.000E+00
   1   39   38    10    20    1.0579E+03  4.3580E+01   1.0143E+03  0.000E+00  0.000E+00  0.000E+00  2.07101E+03  1.479E-02  3.000E+00  1.630E+03  0.000E+00  0.000E+00
   1   38   38    10    21    1.0143E+03  9.0653E+01   9.2364E+02  0.000E+00  0.000E+00  0.000E+00  2.06701E+03  1.276E-02  3.000E+00  1.630E+03  0.000E+00  0.000E+00
   1   37   37    10    22    9.2364E+02 -2.1619E+02   1.1398E+03  0.000E+00  0.000E+00  0.000E+00  2.06101E+03  1.325E-02  3.000E+00  1.630E+03  0.000E+00  0.000E+00
   1   36   37    10    23    1.1398E+03 -1.4602E+02   1.2859E+03  0.000E+00  0.000E+00  0.000E+00  2.05702E+03  1.536E-02  3.000E+00  1.350E+03  0.000E+00  0.000E+00
   1   35   37    10    24    1.2859E+03 -3.3628E+01   1.3195E+03  0.000E+00  0.000E+00  0.000E+00  2.05401E+03  1.137E-02  3.000E+00  6.750E+02  0.000E+00  0.000E+00
   1   36   55    11     1    2.4699E+03 -1.5859E+01   2.4858E+03  0.000E+00  0.000E+00  0.000E+00  1.97602E+03  1.915E-02  3.000E+00  6.750E+02  0.000E+00  0.000E+00
   1   36   56    11     2    2.4858E+03  4.1066E+01   2.4447E+03  0.000E+00  0.000E+00  0.000E+00  1.97503E+03  3.207E-02  3.000E+00  1.630E+03  0.000E+00  0.000E+00
   1   37   57    11     3    2.4447E+03 -2.1091E+01   2.4658E+03  0.000E+00  0.000E+00  0.000E+00  1.97303E+03  3.199E-02  3.000E+00  1.630E+03  0.000E+00  0.000E+00
   1   37   58    11     4    2.4658E+03  3.3107E-01   2.4655E+03  0.000E+00  0.000E+00  0.000E+00  1.97204E+03  4.215E-02  3.000E+00  1.350E+03  0.000E+00  0.000E+00
   1   37   59    11     5    2.4655E+03  7.7889E+01   2.3876E+03  0.000E+00  0.000E+00  0.000E+00  1.97203E+03  3.391E-02  3.000E+00  1.350E+03  0.000E+00  0.000E+00
   1   37   60    11     6    2.3876E+03  4.8801E+01   2.3388E+03  0.000E+00  0.000E+00  0.000E+00  1.97003E+03  2.683E-02  3.000E+00  1.630E+03  0.000E+00  0.000E+00
   1   38   61    11     7    2.3388E+03  2.5306E+00   2.3362E+03  0.000E+00  0.000E+00  0.000E+00  1.96702E+03  2.409E-02  3.000E+00  1.630E+03  0.000E+00  0.000E+00
   1   38   62    11     8    2.3362E+03 -7.4796E+01   2.4110E+03  0.000E+00  0.000E+00  0.000E+00  1.96302E+03  2.208E-02  3.000E+00  6.750E+02  0.000E+00  0.000E+00
   1   51   11    12     1    0.0000E+00 -3.0274E+02   3.0274E+02  0.000E+00  0.000E+00  0.000E+00  2.38700E+03  3.469E-03  3.000E+00  1.909E+03  0.000E+00  0.000E+00
   1   50   12    12     2    3.0274E+02 -8.2785E-01   3.0357E+02  0.000E+00  0.000E+00  0.000E+00  2.37501E+03  5.017E-03  3.000E+00  1.630E+03  0.000E+00  0.000E+00
   1   49   12    12     3    3.0357E+02 -2.8869E+02   5.9226E+02  0.000E+00  0.000E+00  0.000E+00  2.36501E+03  6.626E-03  3.000E+00  1.630E+03  0.000E+00  0.000E+00
   1   48   13    12     4    5.9226E+02 -5.8650E+01   6.5091E+02  0.000E+00  0.000E+00  0.000E+00  2.35601E+03  8.658E-03  3.000E+00  1.630E+03  0.000E+00  0.000E+00
   1   48   14    12     5    6.5091E+02 -9.6013E+01   7.4692E+02  0.000E+00  0.000E+00  0.000E+00  2.35001E+03  9.112E-03  3.000E+00  1.630E+03  0.000E+00  0.000E+00
   1   47   15    12     6    7.4692E+02 -8.1094E+01   8.2802E+02  0.000E+00  0.000E+00  0.000E+00  2.34001E+03  9.979E-03  3.000E+00  1.630E+03  0.000E+00  0.000E+00
   1   47   16    12     7    8.2802E+02 -7.6869E+01   9.0489E+02  0.000E+00  0.000E+00  0.000E+00  2.33501E+03  1.160E-02  3.000E+00  1.630E+03  0.000E+00  0.000E+00
   1   46   17    12     8    9.0489E+02  1.2752E+02   7.7737E+02  0.000E+00  0.000E+00  0.000E+00  2.32901E+03  1.060E-02  3.000E+00  1.630E+03  0.000E+00  0.000E+00
   1   46   18    12     9    7.7737E+02  2.1830E+02   5.5907E+02  0.000E+00  0.000E+00  0.000E+00  2.32101E+03  7.518E-03  3.000E+00  1.350E+03  0.000E+00  0.000E+00
   1   46   19    12    10    5.5907E+02 -1.0840E+02   6.6747E+02  0.000E+00  0.000E+00  0.000E+00  2.30601E+03  8.117E-03  3.000E+00  1.350E+03  0.000E+00  0.000E+00
   1   46   20    12    11    6.6747E+02  9.7776E+01   5.6969E+02  0.000E+00  0.000E+00  0.000E+00  2.30601E+03  6.878E-03  3.000E+00  1.630E+03  9.778E+01  0.000E+00
   1   45   21    12    12    5.6969E+02  4.5353E-01   5.6924E+02  0.000E+00  0.000E+00  0.000E+00  2.27401E+03  5.803E-03  3.000E+00  1.909E+03  0.000E+00  0.000E+00
   1   44   22    12    13    5.6924E+02 -8.8902E+01   6.5814E+02  0.000E+00  0.000E+00  0.000E+00  2.25001E+03  6.570E-03  3.000E+00  1.909E+03  0.000E+00  0.000E+00
   1   43   23    12    14    6.5814E+02  2.1014E+02   4.4800E+02  0.000E+00  0.000E+00  0.000E+00  2.23101E+03  6.216E-03  3.000E+00  1.909E+03  0.000E+00  0.000E+00
   1   42   24    12    15    4.4800E+02 -1.4092E+01   4.6209E+02  0.000E+00  0.000E+00  0.000E+00  2.20801E+03  5.776E-03  3.000E+00  1.630E+03  0.000E+00  0.000E+00
   1   42   25    12    16    4.6209E+02  4.9046E+01   4.1305E+02  0.000E+00  0.000E+00  0.000E+00  2.20001E+03  6.081E-03  3.000E+00  1.350E+03  0.000E+00  0.000E+00
   1   42   26    12    17    4.1305E+02  1.7848E+02   2.3456E+02  0.000E+00  0.000E+00  0.000E+00  2.18800E+03  4.495E-03  3.000E+00  1.350E+03  0.000E+00  0.000E+00
   1   42   27    12    18    2.3456E+02 -2.0430E+02   4.3886E+02  0.000E+00  0.000E+00  0.000E+00  2.17000E+03  4.648E-03  3.000E+00  1.350E+03  0.000E+00  0.000E+00
   1   42   28    12    19    4.3886E+02 -3.3736E+01   4.7260E+02  0.000E+00  0.000E+00  0.000E+00  2.15901E+03  5.960E-03  3.000E+00  1.630E+03  0.000E+00  0.000E+00
   1   41   29    12    20    4.7260E+02  2.0711E+02   2.6548E+02  0.000E+00  0.000E+00  0.000E+00  2.14201E+03  5.291E-03  3.000E+00  1.909E+03  0.000E+00  0.000E+00
   1   40   30    12    21    2.6548E+02  1.4465E+02   1.2084E+02  0.000E+00  0.000E+00  0.000E+00  2.12700E+03  3.775E-03  3.000E+00  1.909E+03  0.000E+00  0.000E+00
   1   39   31    12    22    1.2084E+02  1.1455E+02   6.2846E+00  0.000E+00  0.000E+00  0.000E+00  2.11500E+03  2.010E-03  3.000E+00  1.909E+03  1.146E+02  0.000E+00
   1   38   32    12    23    6.2846E+00  6.2846E+00   0.0000E+00  0.000E+00  0.000E+00  0.000E+00  2.10300E+03  1.100E-04  3.000E+00  1.909E+03  6.285E+00  0.000E+00
   1   37   33    12    24    0.0000E+00  0.0000E+00   0.0000E+00  0.000E+00  0.000E+00  0.000E+00  2.08900E+03  0.000E+00  3.000E+00  1.909E+03  0.000E+00  0.000E+00
   1   36   34    12    25    0.0000E+00 -3.2032E+01   3.2032E+01  0.000E+00  0.000E+00  0.000E+00  2.07700E+03  7.332E-04  3.000E+00  9.546E+02  0.000E+00  0.000E+00
   1   38   62    13     1    2.5359E+03 -7.7811E+01   2.6137E+03  0.000E+00  0.000E+00  0.000E+00  1.96302E+03  1.761E-02  3.000E+00  6.750E+02  0.000E+00  0.000E+00
   1   38   63    13     2    2.6137E+03 -3.7186E+00   2.6174E+03  0.000E+00  0.000E+00  0.000E+00  1.96416E+03  1.158E+00  3.000E+00  1.350E+03  0.000E+00  0.000E+00
   1   38   64    13     3    2.6174E+03  2.4385E+01   2.5930E+03  0.000E+00  0.000E+00  0.000E+00  1.96415E+03  1.155E+00  3.000E+00  1.350E+03  0.000E+00  0.000E+00
   1   38   65    13     4    2.5930E+03  4.7622E+01   2.5454E+03  0.000E+00  0.000E+00  0.000E+00  1.96303E+03  3.107E-02  3.000E+00  1.350E+03  0.000E+00  0.000E+00
   1   38   66    13     5    2.5454E+03 -2.3139E+01   2.5685E+03  0.000E+00  0.000E+00  0.000E+00  1.96003E+03  2.658E-02  3.000E+00  1.350E+03  0.000E+00  0.000E+00
   1   38   67    13     6    2.5685E+03  1.0554E+01   2.5580E+03  0.000E+00  0.000E+00  0.000E+00  1.95803E+03  2.546E-02  3.000E+00  1.630E+03  0.000E+00  0.000E+00
   1   39   68    13     7    2.5580E+03  3.8202E+01   2.5198E+03  0.000E+00  0.000E+00  0.000E+00  1.95302E+03  2.275E-02  3.000E+00  1.630E+03  0.000E+00  0.000E+00
   1   39   69    13     8    2.5198E+03 -1.6717E+01   2.5365E+03  0.000E+00  0.000E+00  0.000E+00  1.94802E+03  2.387E-02  3.000E+00  1.350E+03  0.000E+00  0.000E+00
   1   39   70    13     9    2.5365E+03  4.3333E+01   2.4932E+03  0.000E+00  0.000E+00  0.000E+00  1.94602E+03  2.024E-02  3.000E+00  6.750E+02  0.000E+00  0.000E+00
   1   46   61    14     1    0.0000E+00  0.0000E+00   0.0000E+00  0.000E+00  0.000E+00  0.000E+00  2.01700E+03  0.000E+00  3.000E+00  1.350E+03  0.000E+00  0.000E+00
   1   45   61    14     2    0.0000E+00  0.0000E+00   0.0000E+00  0.000E+00  0.000E+00  0.000E+00  2.01000E+03  0.000E+00  3.000E+00  1.350E+03  0.000E+00  0.000E+00
   1   44   61    14     3    0.0000E+00  0.0000E+00   0.0000E+00  0.000E+00  0.000E+00  0.000E+00  2.00600E+03  0.000E+00  3.000E+00  1.350E+03  0.000E+00  0.000E+00
   1   43   61    14     4    0.0000E+00  0.0000E+00   0.0000E+00  0.000E+00  0.000E+00  0.000E+00  1.99900E+03  0.000E+00  3.000E+00  1.350E+03  0.000E+00  0.000E+00
   1   42   61    14     5    0.0000E+00  0.0000E+00   0.0000E+00  0.000E+00  0.000E+00  0.000E+00  1.99300E+03  0.000E+00  3.000E+00  1.350E+03  0.000E+00  0.000E+00
   1   41   61    14     6    0.0000E+00  0.0000E+00   0.0000E+00  0.000E+00  0.000E+00  0.000E+00  1.98500E+03  0.000E+00  3.000E+00  1.350E+03  0.000E+00  0.000E+00
   1   40   61    14     7    0.0000E+00  0.0000E+00   0.0000E+00  0.000E+00  0.000E+00  0.000E+00  1.97800E+03  0.000E+00  3.000E+00  1.350E+03  0.000E+00  0.000E+00
   1   39   61    14     8    0.0000E+00  0.0000E+00   0.0000E+00  0.000E+00  0.000E+00  0.000E+00  1.97300E+03  0.000E+00  3.000E+00  1.630E+03  0.000E+00  0.000E+00
   1   38   62    14     9    0.0000E+00 -1.2485E+02   1.2485E+02  0.000E+00  0.000E+00  0.000E+00  1.96300E+03  2.100E-03  3.000E+00  9.546E+02  0.000E+00  0.000E+00
   1   39   70    15     1    2.4932E+03  4.0947E+01   2.4522E+03  0.000E+00  0.000E+00  0.000E+00  1.94602E+03  1.670E-02  3.000E+00  6.750E+02  0.000E+00  0.000E+00
   1   39   71    15     2    2.4522E+03 -4.2337E+01   2.4946E+03  0.000E+00  0.000E+00  0.000E+00  1.94203E+03  2.757E-02  3.000E+00  1.630E+03  0.000E+00  0.000E+00
   1   40   72    15     3    2.4946E+03  4.3281E+01   2.4513E+03  0.000E+00  0.000E+00  0.000E+00  1.94103E+03  2.948E-02  3.000E+00  1.630E+03  0.000E+00  0.000E+00
   1   40   73    15     4    2.4513E+03  1.4501E+01   2.4368E+03  0.000E+00  0.000E+00  0.000E+00  1.93803E+03  2.587E-02  3.000E+00  1.350E+03  0.000E+00  0.000E+00
   1   40   74    15     5    2.4368E+03  2.8983E+01   2.4078E+03  0.000E+00  0.000E+00  0.000E+00  1.93603E+03  2.751E-02  3.000E+00  1.350E+03  0.000E+00  0.000E+00
   1   40   75    15     6    2.4078E+03  1.1181E+01   2.3966E+03  0.000E+00  0.000E+00  0.000E+00  1.93402E+03  2.424E-02  3.000E+00  6.750E+02  0.000E+00  0.000E+00
   1   40   75    16     1    2.4035E+03  8.8451E+00   2.3947E+03  0.000E+00  0.000E+00  0.000E+00  1.93402E+03  2.078E-02  3.000E+00  6.750E+02  0.000E+00  0.000E+00
   1   40   76    16     2    2.3947E+03  0.0000E+00   2.3947E+03  0.000E+00  0.000E+00  0.000E+00  1.93303E+03  2.979E-02  3.000E+00  0.000E+00  0.000E+00  0.000E+00
   1   55   73    17     1    0.0000E+00  0.0000E+00   0.0000E+00  0.000E+00  0.000E+00  0.000E+00  2.04100E+03  0.000E+00  3.000E+00  1.350E+03  0.000E+00  0.000E+00
   1   54   73    17     2    0.0000E+00  0.0000E+00   0.0000E+00  0.000E+00  0.000E+00  0.000E+00  2.02900E+03  0.000E+00  3.000E+00  1.350E+03  0.000E+00  0.000E+00
   1   53   73    17     3    0.0000E+00  0.0000E+00   0.0000E+00  0.000E+00  0.000E+00  0.000E+00  2.01700E+03  0.000E+00  3.000E+00  1.350E+03  0.000E+00  0.000E+00
   1   52   73    17     4    0.0000E+00  0.0000E+00   0.0000E+00  0.000E+00  0.000E+00  0.000E+00  2.01000E+03  0.000E+00  3.000E+00  1.630E+03  0.000E+00  0.000E+00
   1   51   72    17     5    0.0000E+00 -1.6787E+02   1.6787E+02  0.000E+00  0.000E+00  0.000E+00  1.99800E+03  2.509E-03  3.000E+00  1.630E+03  0.000E+00  0.000E+00
   1   50   72    17     6    1.6787E+02  4.1360E+01   1.2651E+02  0.000E+00  0.000E+00  0.000E+00  1.99300E+03  3.687E-03  3.000E+00  1.350E+03  0.000E+00  0.000E+00
   1   49   72    17     7    1.2651E+02 -1.2861E+01   1.3937E+02  0.000E+00  0.000E+00  0.000E+00  1.98600E+03  3.311E-03  3.000E+00  1.350E+03  0.000E+00  0.000E+00
   1   48   72    17     8    1.3937E+02 -2.1966E+01   1.6134E+02  0.000E+00  0.000E+00  0.000E+00  1.97900E+03  3.565E-03  3.000E+00  1.350E+03  0.000E+00  0.000E+00
   1   47   72    17     9    1.6134E+02 -9.6763E+01   2.5810E+02  0.000E+00  0.000E+00  0.000E+00  1.97200E+03  4.451E-03  3.000E+00  1.350E+03  0.000E+00  0.000E+00
   1   46   72    17    10    2.5810E+02  4.5764E+01   2.1234E+02  0.000E+00  0.000E+00  0.000E+00  1.96600E+03  4.884E-03  3.000E+00  1.350E+03  0.000E+00  0.000E+00
   1   45   72    17    11    2.1234E+02  5.9035E+01   1.5330E+02  0.000E+00  0.000E+00  0.000E+00  1.96000E+03  4.242E-03  3.000E+00  1.630E+03  0.000E+00  0.000E+00
   1   44   73    17    12    1.5330E+02  3.9815E+01   1.1349E+02  0.000E+00  0.000E+00  0.000E+00  1.95200E+03  3.590E-03  3.000E+00  1.630E+03  0.000E+00  0.000E+00
   1   43   73    17    13    1.1349E+02  1.8776E+01   9.4713E+01  0.000E+00  0.000E+00  0.000E+00  1.94700E+03  3.383E-03  3.000E+00  1.350E+03  0.000E+00  0.000E+00
   1   42   73    17    14    9.4713E+01  7.4151E+01   2.0562E+01  0.000E+00  0.000E+00  0.000E+00  1.94400E+03  2.423E-03  3.000E+00  1.630E+03  0.000E+00  0.000E+00
   1   41   74    17    15    2.0562E+01  2.0562E+01   0.0000E+00  0.000E+00  0.000E+00  0.000E+00  1.93800E+03  2.984E-04  3.000E+00  1.909E+03  0.000E+00  0.000E+00
   1   40   75    17    16    0.0000E+00 -6.8851E+00   6.8851E+00  0.000E+00  0.000E+00  0.000E+00  1.93400E+03  4.644E-04  3.000E+00  9.546E+02  0.000E+00  0.000E+00
   1   37   55    18     1    0.0000E+00  0.0000E+00   0.0000E+00  0.000E+00  0.000E+00  0.000E+00  2.00700E+03  0.000E+00  3.000E+00  1.630E+03  0.000E+00  0.000E+00
   1   36   54    19     1    0.0000E+00  0.0000E+00   0.0000E+00  0.000E+00  0.000E+00  0.000E+00  2.00700E+03  0.000E+00  3.000E+00  1.630E+03  0.000E+00  0.000E+00



1
  VOLUMETRIC BUDGET FOR UNSATURATED ZONE BENEATH STREAMS AT END OF TIME STEP     1 STRESS PERIOD   1
  ------------------------------------------------------------------------------------------------

    CUMULATIVE VOLUMES             L**3    RATES FOR THIS TIME STEP         L**3/T
    ------------------                     ------------------------


          STREAM LOSS =          560.4323            STREAM LOSS =          560.4323
    CHANGE IN STORAGE =            0.0000      CHANGE IN STORAGE =            0.0000
       RECHARGE TO GW =          560.4323         RECHARGE TO GW =          560.4323

             TOTAL IN =          560.4323               TOTAL IN =          560.4323

            TOTAL OUT =          560.4323              TOTAL OUT =          560.4323

             IN - OUT =            0.0000               IN - OUT =            0.0000

  PERCENT DISCREPANCY =            0.00      PERCENT DISCREPANCY =             0.00



 ***WARNING***NUZTOP IS 3 AND ALL LAYERS  IN ROW           39  AND COLUMN           76  ARE INACTIVE.
 UNSATURATED FLOW WILL NOT BE ADDED TO ANY LAYER-- SOME WATER MAY FLOW PAST LOWEST LAYER
 ***WARNING***NUZTOP IS 3 AND ALL LAYERS  IN ROW           40  AND COLUMN           76  ARE INACTIVE.
 UNSATURATED FLOW WILL NOT BE ADDED TO ANY LAYER-- SOME WATER MAY FLOW PAST LOWEST LAYER


UNSATURATED ZONE PACKAGE VOLUMETRIC BUDGET FOR  TIME STEP     1 STRESS PERIOD    1
  ------------------------------------------------------------------------------



     CUMULATIVE VOLUMES      L**3       RATES FOR THIS TIME STEP      L**3/T
     ------------------                 ------------------------

           IN:                                      IN:
           ---                                      ---
        INFILTRATION =       26653.0419          INFILTRATION =       26653.0419

          OUT:                                     OUT:
          ----                                     ----
              UZF ET =       0.0000E+00                UZF ET =       0.0000E+00
        UZF RECHARGE =       26653.0419          UZF RECHARGE =       26653.0419

            IN - OUT =       0.0000E+00              IN - OUT =       0.0000E+00

          STORAGE:                                 STORAGE:
          --------                                 --------
      STORAGE CHANGE =       0.0000E+00        STORAGE CHANGE =       0.0000E+00

 PERCENT DISCREPANCY IS DIFFERENCE BETWEEN IN-OUT MINUS CHANGE IN STORAGE
 DIVIDED BY THE AVERAGE OF IN AND OUT TIMES 100

 PERCENT DISCREPANCY =           0.00     PERCENT DISCREPANCY =           0.00








        GW IRRIGATION     PERIOD    1   STEP   1

1
  VOLUMETRIC BUDGET FOR AGRICULTURAL FIELDS AT  END OF TIME STEP    1, STRESS PERIOD   1
  ------------------------------------------------------------------------------

     CUMULATIVE VOLUMES      L**3       RATES FOR THIS TIME STEP      L**3/T
     ------------------                 ------------------------

           IN:                                      IN:
           ---                                      ---
               AG WELLS  =           0.0000                 AG WELLS  =          -0.0000
      DIVERSION SEGMENTS =           0.0000        DIVERSION SEGMENTS =           0.0000
       IRRIGATION PONDS  =           0.0000         IRRIGATION PONDS  =           0.0000
           GW IRRIGATION =           0.0000             GW IRRIGATION =           0.0000
           SW IRRIGATION =           0.0000             SW IRRIGATION =           0.0000
        SYSTEM LOSSES GW =           0.0000          SYSTEM LOSSES GW =           0.0000
        SYSTEM LOSSES SW =           0.0000          SYSTEM LOSSES SW =          -0.0000

                TOTAL IN =           0.0000                  TOTAL IN =           0.0000

          OUT:                                     OUT:
          ----                                     ----
               AG WELLS  =           0.0000                 AG WELLS  =           0.0000
      DIVERSION SEGMENTS =           0.0000        DIVERSION SEGMENTS =           0.0000
       IRRIGATION PONDS  =           0.0000         IRRIGATION PONDS  =           0.0000
           GW IRRIGATION =           0.0000             GW IRRIGATION =           0.0000
           SW IRRIGATION =           0.0000             SW IRRIGATION =           0.0000
        SYSTEM LOSSES GW =           0.0000          SYSTEM LOSSES GW =           0.0000
        SYSTEM LOSSES SW =           0.0000          SYSTEM LOSSES SW =           0.0000

               TOTAL OUT =           0.0000                 TOTAL OUT =           0.0000

                IN - OUT =           0.0000                  IN - OUT =           0.0000

     PERCENT DISCREPANCY =           0.00         PERCENT DISCREPANCY =           0.00




 HEAD WILL BE SAVED ON UNIT   58 AT END OF TIME STEP    1, STRESS PERIOD    1
1
  VOLUMETRIC BUDGET FOR ENTIRE MODEL AT END OF TIME STEP    1, STRESS PERIOD   1
  ------------------------------------------------------------------------------

     CUMULATIVE VOLUMES      L**3       RATES FOR THIS TIME STEP      L**3/T
     ------------------                 ------------------------

           IN:                                      IN:
           ---                                      ---
             STORAGE     =           0.0000               STORAGE     =           0.0000
       CONSTANT HEAD     =           0.0000         CONSTANT HEAD     =           0.0000
      STREAM LEAKAGE     =        3925.1438        STREAM LEAKAGE     =        3925.1438
        UZF RECHARGE     =       26666.4492          UZF RECHARGE     =       26666.4492
               GW ET     =           0.0000                 GW ET     =           0.0000
     SURFACE LEAKAGE     =           0.0000       SURFACE LEAKAGE     =           0.0000
           AG WELLS      =           0.0000             AG WELLS      =           0.0000

                TOTAL IN =       30591.5938                  TOTAL IN =       30591.5938

          OUT:                                     OUT:
          ----                                     ----
             STORAGE     =           0.0000               STORAGE     =           0.0000
       CONSTANT HEAD     =          35.5818         CONSTANT HEAD     =          35.5818
      STREAM LEAKAGE     =        6319.8057        STREAM LEAKAGE     =        6319.8057
        UZF RECHARGE     =           0.0000          UZF RECHARGE     =           0.0000
               GW ET     =       24196.7871                 GW ET     =       24196.7871
     SURFACE LEAKAGE     =          26.1491       SURFACE LEAKAGE     =          26.1491
           AG WELLS      =           0.0000             AG WELLS      =           0.0000

               TOTAL OUT =       30578.3223                 TOTAL OUT =       30578.3223

                IN - OUT =          13.2715                  IN - OUT =          13.2715

     PERCENT DISCREPANCY =           0.04         PERCENT DISCREPANCY =           0.04






         TIME SUMMARY AT END OF TIME STEP    1 IN STRESS PERIOD    1
                    SECONDS     MINUTES      HOURS       DAYS        YEARS
                    -----------------------------------------------------------
   TIME STEP LENGTH  86400.      1440.0      24.000      1.0000     2.73785E-03
 STRESS PERIOD TIME  86400.      1440.0      24.000      1.0000     2.73785E-03
         TOTAL TIME  86400.      1440.0      24.000      1.0000     2.73785E-03
1
1
                            STRESS PERIOD NO.    2, LENGTH =   31.00000    
                            -----------------------------------------------

                              NUMBER OF TIME STEPS =    31

                               MULTIPLIER FOR DELT =     1.000

                            INITIAL TIME STEP SIZE =   1.000000    
 USING INFILTRATION RATE FROM PREVIOUS STRESS 
 PERIOD.CURRENT PERIOD IS:            2

USING ET RATE FROM PREVIOUS STRESS PERIOD. CURRENT PERIOD IS:       2

 USING ET EXTINCTION DEPTH FROM PREVIOUS STRESS PERIOD. CURRENT PERIOD IS:       2

 USING EXTINCTION WATER CONTENT FROM PREVIOUS STRESS PERIOD. CURRENT PERIOD IS:       2

 PROCESSING AG STRESS PERIOD DATA

 READING AG STRESS PERIOD DATA

 READING IRRIGATION POND

 END PROCESSING AG STRESS PERIOD DATA OPTIONS
                                                   Max.-Head-Change                         Max.-Flux-Residual
  Residual-Control   Outer-Iter.   Inner-Iter.     Column Row Layer    Maximum-Head-Change  Column Row Layer    Maximum-Flux-Residual          L2-NORM 
          0                 1           4             9   52     1       0.3194892465E+01      51   36    1         0.6153168474E+02      0.7252753784E+03
          0                 2           4            51   36     1       0.5901589670E+00      33   37    1         0.4875558793E+03      0.7010112122E+03
          0                 3           4            67   40     1       0.3058087330E+01      63   38    1         0.2095427590E+03      0.3377442898E+03
          0                 4           3            67   40     1      -0.3368006728E+00      67   40    1        -0.4317718291E+03      0.4616801484E+03
          0                 5           3            67   40     1      -0.8805614049E-01      67   40    1        -0.1128349512E+03      0.1258690639E+03
          0                 6           3            67   40     1      -0.2300898567E-01      67   40    1        -0.2947982131E+02      0.3363677513E+02
          0                 7           2            67   40     1      -0.6011134633E-02      67   40    1        -0.7701406097E+01      0.8855492303E+01
          0                 8           2            67   40     1      -0.1570400377E-02      67   40    1        -0.2011902047E+01      0.2331512506E+01
          0                 9           1            67   40     1      -0.4102355002E-03      67   40    1        -0.5255840750E+00      0.6388637836E+00

    ------------------------------------------------
       NWT REQUIRED            9 OUTER ITERATIONS 
       AND A TOTAL OF         26 INNER ITERATIONS.
    ------------------------------------------------

 OUTPUT CONTROL FOR STRESS PERIOD    2   TIME STEP    1
    PRINT BUDGET
    SAVE BUDGET
    SAVE HEAD FOR ALL LAYERS



 STREAM LISTING     PERIOD      2   STEP        1

 LAYER ROW COL. STREAM  RCH.   FLOW INTO    STREAM     FLOW OUT OF   OVRLND.    DIRECT     STREAM      STREAM      STREAM     STREAM  STREAMBED   FLOW TO   CHNG. UNSAT. 
                SEG.NO.  NO.   STRM. RCH.    LOSS       STRM. RCH.   RUNOFF     PRECIP       ET         HEAD        DEPTH      WIDTH  CONDCTNC.   WAT. TAB.

   1   18   62     1     1    0.0000E+00  8.7022E-01   0.0000E+00  8.702E-01  0.000E+00  0.000E+00  2.07300E+03  2.398E-05  3.000E+00  1.909E+03  0.000E+00  0.000E+00
   1   19   63     1     2    0.0000E+00  8.7022E-01   0.0000E+00  8.702E-01  0.000E+00  0.000E+00  2.06300E+03  2.435E-05  3.000E+00  1.909E+03  0.000E+00  0.000E+00
   1   20   64     1     3    0.0000E+00 -4.3595E+01   4.4465E+01  8.702E-01  0.000E+00  0.000E+00  2.05400E+03  1.256E-03  3.000E+00  1.630E+03  0.000E+00  0.000E+00
   1   21   64     1     4    4.4465E+01 -4.5911E+01   9.1246E+01  8.702E-01  0.000E+00  0.000E+00  2.05100E+03  3.020E-03  3.000E+00  1.630E+03  0.000E+00  0.000E+00
   1   22   65     1     5    9.1246E+01  9.2116E+01   0.0000E+00  8.702E-01  0.000E+00  0.000E+00  2.04800E+03  6.928E-04  3.000E+00  9.546E+02  0.000E+00  0.000E+00
   1   20   66     2     1    0.0000E+00  0.0000E+00   0.0000E+00  0.000E+00  0.000E+00  0.000E+00  2.05300E+03  0.000E+00  3.000E+00  1.909E+03  0.000E+00  0.000E+00
   1   21   65     2     2    0.0000E+00  0.0000E+00   0.0000E+00  0.000E+00  0.000E+00  0.000E+00  2.05100E+03  0.000E+00  3.000E+00  1.630E+03  0.000E+00  0.000E+00
   1   22   65     2     3    0.0000E+00  0.0000E+00   0.0000E+00  0.000E+00  0.000E+00  0.000E+00  2.04800E+03  0.000E+00  3.000E+00  6.750E+02  0.000E+00  0.000E+00
   1   22   65     3     1    0.0000E+00  0.0000E+00   0.0000E+00  0.000E+00  0.000E+00  0.000E+00  2.04800E+03  0.000E+00  3.000E+00  6.750E+02  0.000E+00  0.000E+00
   1   23   65     3     2    0.0000E+00  0.0000E+00   0.0000E+00  0.000E+00  0.000E+00  0.000E+00  2.04500E+03  0.000E+00  3.000E+00  1.630E+03  0.000E+00  0.000E+00
   1   24   66     3     3    0.0000E+00  0.0000E+00   0.0000E+00  0.000E+00  0.000E+00  0.000E+00  2.04500E+03  0.000E+00  3.000E+00  1.909E+03  0.000E+00  0.000E+00
   1   25   67     3     4    0.0000E+00  0.0000E+00   0.0000E+00  0.000E+00  0.000E+00  0.000E+00  2.04500E+03  0.000E+00  3.000E+00  1.909E+03  0.000E+00  0.000E+00
   1   26   68     3     5    0.0000E+00  0.0000E+00   0.0000E+00  0.000E+00  0.000E+00  0.000E+00  2.04200E+03  0.000E+00  3.000E+00  1.630E+03  0.000E+00  0.000E+00
   1   27   68     3     6    0.0000E+00  0.0000E+00   0.0000E+00  0.000E+00  0.000E+00  0.000E+00  2.04100E+03  0.000E+00  3.000E+00  1.630E+03  0.000E+00  0.000E+00
   1   28   69     3     7    0.0000E+00  0.0000E+00   0.0000E+00  0.000E+00  0.000E+00  0.000E+00  2.03600E+03  0.000E+00  3.000E+00  1.630E+03  0.000E+00  0.000E+00
   1   29   69     3     8    0.0000E+00  0.0000E+00   0.0000E+00  0.000E+00  0.000E+00  0.000E+00  2.02900E+03  0.000E+00  3.000E+00  1.350E+03  0.000E+00  0.000E+00
   1   30   69     3     9    0.0000E+00  0.0000E+00   0.0000E+00  0.000E+00  0.000E+00  0.000E+00  2.02300E+03  0.000E+00  3.000E+00  1.630E+03  0.000E+00  0.000E+00
   1   31   70     3    10    0.0000E+00 -6.9459E+01   6.9459E+01  0.000E+00  0.000E+00  0.000E+00  2.01100E+03  1.456E-03  3.000E+00  1.630E+03  0.000E+00  0.000E+00
   1   32   70     3    11    6.9459E+01 -1.8826E+02   2.5771E+02  0.000E+00  0.000E+00  0.000E+00  2.00500E+03  4.436E-03  3.000E+00  1.350E+03  0.000E+00  0.000E+00
   1   33   70     3    12    2.5771E+02  4.8334E+01   2.0938E+02  0.000E+00  0.000E+00  0.000E+00  2.00300E+03  4.483E-03  3.000E+00  1.630E+03  0.000E+00  0.000E+00
   1   34   69     3    13    2.0938E+02  6.2391E+00   2.0314E+02  0.000E+00  0.000E+00  0.000E+00  1.98600E+03  3.629E-03  3.000E+00  1.630E+03  0.000E+00  0.000E+00
   1   35   69     3    14    2.0314E+02 -1.5287E+01   2.1843E+02  0.000E+00  0.000E+00  0.000E+00  1.97300E+03  3.984E-03  3.000E+00  1.350E+03  0.000E+00  0.000E+00
   1   36   69     3    15    2.1843E+02  4.2966E+01   1.7546E+02  0.000E+00  0.000E+00  0.000E+00  1.96700E+03  4.192E-03  3.000E+00  1.350E+03  0.000E+00  0.000E+00
   1   37   69     3    16    1.7546E+02  1.7546E+02   0.0000E+00  0.000E+00  0.000E+00  0.000E+00  1.95900E+03  8.800E-04  3.000E+00  1.350E+03  0.000E+00  0.000E+00
   1   38   69     3    17    0.0000E+00  0.0000E+00   0.0000E+00  0.000E+00  0.000E+00  0.000E+00  1.95300E+03  0.000E+00  3.000E+00  1.630E+03  0.000E+00  0.000E+00
   1   39   70     3    18    0.0000E+00  0.0000E+00   0.0000E+00  0.000E+00  0.000E+00  0.000E+00  1.94600E+03  0.000E+00  3.000E+00  9.546E+02  0.000E+00  0.000E+00
   1   25   49     4     1    0.0000E+00 -8.5693E+01   8.5693E+01  0.000E+00  0.000E+00  0.000E+00  2.03500E+03  1.652E-03  3.000E+00  1.909E+03  0.000E+00  0.000E+00
   1   26   50     4     2    8.5693E+01 -6.7665E+01   1.5336E+02  0.000E+00  0.000E+00  0.000E+00  2.02600E+03  3.312E-03  3.000E+00  1.909E+03  0.000E+00  0.000E+00
   1   27   51     4     3    1.5336E+02 -5.5240E+01   2.0860E+02  0.000E+00  0.000E+00  0.000E+00  2.01900E+03  4.417E-03  3.000E+00  1.630E+03  0.000E+00  0.000E+00
   1   28   51     4     4    2.0860E+02 -7.7352E+01   2.8595E+02  0.000E+00  0.000E+00  0.000E+00  2.01401E+03  5.624E-03  3.000E+00  1.630E+03  0.000E+00  0.000E+00
   1   29   52     4     5    2.8595E+02 -3.5705E+01   3.2165E+02  0.000E+00  0.000E+00  0.000E+00  2.00901E+03  6.364E-03  3.000E+00  1.630E+03  0.000E+00  0.000E+00
   1   30   52     4     6    3.2165E+02  1.3905E+01   3.0775E+02  0.000E+00  0.000E+00  0.000E+00  2.00401E+03  6.143E-03  3.000E+00  1.350E+03  0.000E+00  0.000E+00
   1   31   52     4     7    3.0775E+02  4.7485E+00   3.0300E+02  0.000E+00  0.000E+00  0.000E+00  1.99901E+03  6.716E-03  3.000E+00  1.350E+03  0.000E+00  0.000E+00
   1   32   52     4     8    3.0300E+02  3.0263E+01   2.7274E+02  0.000E+00  0.000E+00  0.000E+00  1.99701E+03  6.588E-03  3.000E+00  1.630E+03  0.000E+00  0.000E+00
   1   33   53     4     9    2.7274E+02  2.7274E+02   0.0000E+00  0.000E+00  0.000E+00  0.000E+00  1.99100E+03  1.407E-03  3.000E+00  1.909E+03  0.000E+00  0.000E+00
   1   34   54     4    10    0.0000E+00  0.0000E+00   0.0000E+00  0.000E+00  0.000E+00  0.000E+00  1.98700E+03  0.000E+00  3.000E+00  1.909E+03  0.000E+00  0.000E+00
   1   35   55     4    11    0.0000E+00  0.0000E+00   0.0000E+00  0.000E+00  0.000E+00  0.000E+00  1.98200E+03  0.000E+00  3.000E+00  1.630E+03  0.000E+00  0.000E+00
   1   36   55     4    12    0.0000E+00 -4.1660E+01   4.1660E+01  0.000E+00  0.000E+00  0.000E+00  1.97600E+03  1.091E-03  3.000E+00  6.750E+02  0.000E+00  0.000E+00
   1   35   37     5     1    2.5160E+03 -6.0447E+01   2.5765E+03  0.000E+00  0.000E+00  0.000E+00  2.05402E+03  1.686E-02  3.000E+00  9.546E+02  0.000E+00  0.000E+00
   1   34   38     5     2    2.5765E+03 -1.2236E+02   2.6988E+03  0.000E+00  0.000E+00  0.000E+00  2.04602E+03  2.120E-02  3.000E+00  1.909E+03  0.000E+00  0.000E+00
   1   33   39     5     3    2.6988E+03 -2.3427E+02   2.9331E+03  0.000E+00  0.000E+00  0.000E+00  2.03803E+03  2.620E-02  3.000E+00  1.909E+03  0.000E+00  0.000E+00
   1   32   40     5     4    2.9331E+03  1.4261E+02   2.7905E+03  0.000E+00  0.000E+00  0.000E+00  2.03703E+03  2.613E-02  3.000E+00  1.630E+03  0.000E+00  0.000E+00
   1   32   41     5     5    2.7905E+03 -1.1785E+02   2.9083E+03  0.000E+00  0.000E+00  0.000E+00  2.03002E+03  2.181E-02  3.000E+00  1.350E+03  0.000E+00  0.000E+00
   1   32   42     5     6    2.9083E+03 -1.4850E+02   3.0568E+03  0.000E+00  0.000E+00  0.000E+00  2.02503E+03  2.636E-02  3.000E+00  1.350E+03  0.000E+00  0.000E+00
   1   32   43     5     7    3.0568E+03 -2.0248E+01   3.0771E+03  0.000E+00  0.000E+00  0.000E+00  2.02303E+03  2.970E-02  3.000E+00  1.630E+03  0.000E+00  0.000E+00
   1   33   44     5     8    3.0771E+03 -9.5643E+01   3.1727E+03  0.000E+00  0.000E+00  0.000E+00  2.01903E+03  3.007E-02  3.000E+00  1.909E+03  0.000E+00  0.000E+00
   1   34   45     5     9    3.1727E+03  1.5643E+01   3.1571E+03  0.000E+00  0.000E+00  0.000E+00  2.01603E+03  2.776E-02  3.000E+00  1.630E+03  0.000E+00  0.000E+00
   1   34   46     5    10    3.1571E+03 -8.2830E+01   3.2399E+03  0.000E+00  0.000E+00  0.000E+00  2.01103E+03  2.549E-02  3.000E+00  1.350E+03  0.000E+00  0.000E+00
   1   34   47     5    11    3.2399E+03  1.5446E+01   3.2245E+03  0.000E+00  0.000E+00  0.000E+00  2.00702E+03  2.018E-02  3.000E+00  6.750E+02  0.000E+00  0.000E+00
   1   34   47     6     1    3.2245E+03  1.4379E+01   3.2101E+03  0.000E+00  0.000E+00  0.000E+00  2.00702E+03  1.861E-02  3.000E+00  6.750E+02  0.000E+00  0.000E+00
   1   34   48     6     2    3.2101E+03 -1.1352E+02   3.3236E+03  0.000E+00  0.000E+00  0.000E+00  2.00102E+03  2.446E-02  3.000E+00  1.630E+03  0.000E+00  0.000E+00
   1   35   49     6     3    3.3236E+03 -2.3329E+02   3.5569E+03  0.000E+00  0.000E+00  0.000E+00  1.99403E+03  2.653E-02  3.000E+00  1.630E+03  0.000E+00  0.000E+00
   1   35   50     6     4    3.5569E+03 -1.6208E+02   3.7190E+03  0.000E+00  0.000E+00  0.000E+00  1.99003E+03  3.284E-02  3.000E+00  1.350E+03  0.000E+00  0.000E+00
   1   35   51     6     5    3.7190E+03  8.6746E+01   3.6322E+03  0.000E+00  0.000E+00  0.000E+00  1.98903E+03  3.311E-02  3.000E+00  1.630E+03  0.000E+00  0.000E+00
   1   36   52     6     6    3.6322E+03 -7.1145E+01   3.7034E+03  0.000E+00  0.000E+00  0.000E+00  1.98403E+03  2.928E-02  3.000E+00  1.630E+03  0.000E+00  0.000E+00
   1   36   53     6     7    3.7034E+03 -1.9333E+02   3.8967E+03  0.000E+00  0.000E+00  0.000E+00  1.98004E+03  3.814E-02  3.000E+00  1.630E+03  0.000E+00  0.000E+00
   1   37   54     6     8    3.8967E+03  1.2965E+01   3.8837E+03  0.000E+00  0.000E+00  0.000E+00  1.98004E+03  4.057E-02  3.000E+00  1.909E+03  0.000E+00  0.000E+00
   1   36   55     6     9    3.8837E+03 -3.0500E+01   3.9142E+03  0.000E+00  0.000E+00  0.000E+00  1.97603E+03  3.086E-02  3.000E+00  9.546E+02  0.000E+00  0.000E+00
   1   36   34     7     1    4.3507E+02 -4.2198E+01   4.7726E+02  0.000E+00  0.000E+00  0.000E+00  2.07701E+03  5.460E-03  3.000E+00  9.546E+02  0.000E+00  0.000E+00
   1   35   35     7     2    4.7726E+02 -8.7662E+01   5.6493E+02  0.000E+00  0.000E+00  0.000E+00  2.06701E+03  7.790E-03  3.000E+00  1.630E+03  0.000E+00  0.000E+00
   1   35   36     7     3    5.6493E+02  6.1715E+01   5.0321E+02  0.000E+00  0.000E+00  0.000E+00  2.06201E+03  7.799E-03  3.000E+00  1.350E+03  0.000E+00  0.000E+00
   1   35   37     7     4    5.0321E+02 -5.0129E+01   5.5334E+02  0.000E+00  0.000E+00  0.000E+00  2.05401E+03  5.913E-03  3.000E+00  6.750E+02  0.000E+00  0.000E+00
   1   52   49     8     1    0.0000E+00 -1.6927E+02   1.6927E+02  0.000E+00  0.000E+00  0.000E+00  2.12100E+03  2.557E-03  3.000E+00  1.909E+03  0.000E+00  0.000E+00
   1   51   48     8     2    1.6927E+02 -1.9054E+02   3.5981E+02  0.000E+00  0.000E+00  0.000E+00  2.11701E+03  8.085E-03  3.000E+00  1.909E+03  0.000E+00  0.000E+00
   1   50   47     8     3    3.5981E+02  9.7776E+01   2.6204E+02  0.000E+00  0.000E+00  0.000E+00  2.11701E+03  6.900E-03  3.000E+00  1.630E+03  9.800E+01 -2.279E-01
   1   49   47     8     4    2.6204E+02 -2.0372E+02   4.6576E+02  0.000E+00  0.000E+00  0.000E+00  2.10901E+03  7.092E-03  3.000E+00  1.630E+03  0.000E+00  0.000E+00
   1   48   46     8     5    4.6576E+02  3.8628E+01   4.2713E+02  0.000E+00  0.000E+00  0.000E+00  2.10701E+03  1.055E-02  3.000E+00  1.630E+03  0.000E+00  0.000E+00
   1   47   46     8     6    4.2713E+02  1.3332E+02   2.9381E+02  0.000E+00  0.000E+00  0.000E+00  2.10501E+03  8.773E-03  3.000E+00  1.350E+03  0.000E+00  0.000E+00
   1   46   46     8     7    2.9381E+02  8.1000E+01   2.1281E+02  0.000E+00  0.000E+00  0.000E+00  2.10301E+03  6.287E-03  3.000E+00  1.350E+03  8.102E+01 -2.421E-02
   1   45   46     8     8    2.1281E+02  8.1000E+01   1.3181E+02  0.000E+00  0.000E+00  0.000E+00  2.09900E+03  4.052E-03  3.000E+00  1.350E+03  7.080E+01  1.020E+01
   1   44   46     8     9    1.3181E+02  8.1000E+01   5.0805E+01  0.000E+00  0.000E+00  0.000E+00  2.09100E+03  2.412E-03  3.000E+00  1.350E+03  0.000E+00  8.100E+01
   1   43   46     8    10    5.0805E+01  5.0805E+01   0.0000E+00  0.000E+00  0.000E+00  0.000E+00  2.08000E+03  3.817E-04  3.000E+00  1.350E+03  0.000E+00  5.081E+01
   1   42   46     8    11    0.0000E+00  0.0000E+00   0.0000E+00  0.000E+00  0.000E+00  0.000E+00  2.07200E+03  0.000E+00  3.000E+00  1.630E+03  0.000E+00  0.000E+00
   1   41   45     8    12    0.0000E+00  0.0000E+00   0.0000E+00  0.000E+00  0.000E+00  0.000E+00  2.06000E+03  0.000E+00  3.000E+00  1.630E+03  0.000E+00  0.000E+00
   1   40   45     8    13    0.0000E+00  0.0000E+00   0.0000E+00  0.000E+00  0.000E+00  0.000E+00  2.05400E+03  0.000E+00  3.000E+00  1.350E+03  0.000E+00  0.000E+00
   1   39   45     8    14    0.0000E+00  0.0000E+00   0.0000E+00  0.000E+00  0.000E+00  0.000E+00  2.04600E+03  0.000E+00  3.000E+00  1.350E+03  0.000E+00  0.000E+00
   1   38   45     8    15    0.0000E+00  0.0000E+00   0.0000E+00  0.000E+00  0.000E+00  0.000E+00  2.03500E+03  0.000E+00  3.000E+00  1.350E+03  0.000E+00  0.000E+00
   1   37   45     8    16    0.0000E+00  0.0000E+00   0.0000E+00  0.000E+00  0.000E+00  0.000E+00  2.02700E+03  0.000E+00  3.000E+00  1.630E+03  0.000E+00  0.000E+00
   1   36   46     8    17    0.0000E+00  0.0000E+00   0.0000E+00  0.000E+00  0.000E+00  0.000E+00  2.02100E+03  0.000E+00  3.000E+00  1.630E+03  0.000E+00  0.000E+00
   1   35   46     8    18    0.0000E+00  0.0000E+00   0.0000E+00  0.000E+00  0.000E+00  0.000E+00  2.01400E+03  0.000E+00  3.000E+00  1.630E+03  0.000E+00  0.000E+00
   1   34   47     8    19    0.0000E+00  0.0000E+00   0.0000E+00  0.000E+00  0.000E+00  0.000E+00  2.00700E+03  0.000E+00  3.000E+00  9.546E+02  0.000E+00  0.000E+00
   1   37   26     9     1    0.0000E+00  0.0000E+00   0.0000E+00  0.000E+00  0.000E+00  0.000E+00  2.14700E+03  0.000E+00  3.000E+00  1.350E+03  0.000E+00  0.000E+00
   1   37   27     9     2    0.0000E+00  0.0000E+00   0.0000E+00  0.000E+00  0.000E+00  0.000E+00  2.13400E+03  0.000E+00  3.000E+00  1.350E+03  0.000E+00  0.000E+00
   1   37   28     9     3    0.0000E+00 -7.3055E+01   7.3055E+01  0.000E+00  0.000E+00  0.000E+00  2.12500E+03  1.477E-03  3.000E+00  1.630E+03  0.000E+00  0.000E+00
   1   36   29     9     4    7.3055E+01  7.3055E+01   0.0000E+00  0.000E+00  0.000E+00  0.000E+00  2.11500E+03  5.104E-04  3.000E+00  1.630E+03  0.000E+00  0.000E+00
   1   36   30     9     5    0.0000E+00  0.0000E+00   0.0000E+00  0.000E+00  0.000E+00  0.000E+00  2.10700E+03  0.000E+00  3.000E+00  1.350E+03  0.000E+00  0.000E+00
   1   36   31     9     6    0.0000E+00 -1.4813E+02   1.4813E+02  0.000E+00  0.000E+00  0.000E+00  2.09800E+03  2.240E-03  3.000E+00  1.350E+03  0.000E+00  0.000E+00
   1   36   32     9     7    1.4813E+02 -1.0282E+02   2.5095E+02  0.000E+00  0.000E+00  0.000E+00  2.09100E+03  4.226E-03  3.000E+00  1.350E+03  0.000E+00  0.000E+00
   1   36   33     9     8    2.5095E+02 -1.0724E+02   3.5819E+02  0.000E+00  0.000E+00  0.000E+00  2.08401E+03  5.445E-03  3.000E+00  1.350E+03  0.000E+00  0.000E+00
   1   36   34     9     9    3.5819E+02 -3.0341E+01   3.8853E+02  0.000E+00  0.000E+00  0.000E+00  2.07700E+03  4.715E-03  3.000E+00  6.750E+02  0.000E+00  0.000E+00
   1   58   37    10     1    0.0000E+00  0.0000E+00   0.0000E+00  0.000E+00  0.000E+00  0.000E+00  2.15000E+03  0.000E+00  3.000E+00  1.350E+03  0.000E+00  0.000E+00
   1   57   37    10     2    0.0000E+00  0.0000E+00   0.0000E+00  0.000E+00  0.000E+00  0.000E+00  2.14700E+03  0.000E+00  3.000E+00  1.630E+03  0.000E+00  0.000E+00
   1   56   38    10     3    0.0000E+00  0.0000E+00   0.0000E+00  0.000E+00  0.000E+00  0.000E+00  2.14300E+03  0.000E+00  3.000E+00  1.630E+03  0.000E+00  0.000E+00
   1   55   38    10     4    0.0000E+00 -1.3594E+02   1.3594E+02  0.000E+00  0.000E+00  0.000E+00  2.13800E+03  2.619E-03  3.000E+00  1.350E+03  0.000E+00  0.000E+00
   1   54   38    10     5    1.3594E+02 -9.0573E+01   2.2651E+02  0.000E+00  0.000E+00  0.000E+00  2.13501E+03  5.142E-03  3.000E+00  1.350E+03  0.000E+00  0.000E+00
   1   53   38    10     6    2.2651E+02 -7.0501E+01   2.9701E+02  0.000E+00  0.000E+00  0.000E+00  2.13201E+03  6.411E-03  3.000E+00  1.350E+03  0.000E+00  0.000E+00
   1   52   38    10     7    2.9701E+02 -1.3341E+02   4.3042E+02  0.000E+00  0.000E+00  0.000E+00  2.12901E+03  9.333E-03  3.000E+00  1.630E+03  0.000E+00  0.000E+00
   1   51   39    10     8    4.3042E+02  6.2160E+01   3.6826E+02  0.000E+00  0.000E+00  0.000E+00  2.12801E+03  9.871E-03  3.000E+00  1.630E+03  0.000E+00  0.000E+00
   1   50   39    10     9    3.6826E+02 -6.6240E+01   4.3450E+02  0.000E+00  0.000E+00  0.000E+00  2.12501E+03  8.371E-03  3.000E+00  1.630E+03  0.000E+00  0.000E+00
   1   49   38    10    10    4.3450E+02 -1.3852E+02   5.7302E+02  0.000E+00  0.000E+00  0.000E+00  2.12101E+03  1.006E-02  3.000E+00  1.909E+03  0.000E+00  0.000E+00
   1   48   37    10    11    5.7302E+02  5.0433E+01   5.2259E+02  0.000E+00  0.000E+00  0.000E+00  2.11801E+03  9.000E-03  3.000E+00  1.909E+03  0.000E+00  0.000E+00
   1   47   36    10    12    5.2259E+02 -3.2456E+02   8.4715E+02  0.000E+00  0.000E+00  0.000E+00  2.10901E+03  9.812E-03  3.000E+00  1.630E+03  0.000E+00  0.000E+00
   1   46   36    10    13    8.4715E+02 -1.1742E+02   9.6457E+02  0.000E+00  0.000E+00  0.000E+00  2.10601E+03  1.289E-02  3.000E+00  1.350E+03  0.000E+00  0.000E+00
   1   45   36    10    14    9.6457E+02 -1.5150E+02   1.1161E+03  0.000E+00  0.000E+00  0.000E+00  2.10201E+03  1.401E-02  3.000E+00  1.350E+03  0.000E+00  0.000E+00
   1   44   36    10    15    1.1161E+03 -7.8719E+01   1.1948E+03  0.000E+00  0.000E+00  0.000E+00  2.09902E+03  1.563E-02  3.000E+00  1.350E+03  0.000E+00  0.000E+00
   1   43   36    10    16    1.1948E+03  3.5054E+01   1.1597E+03  0.000E+00  0.000E+00  0.000E+00  2.09601E+03  1.481E-02  3.000E+00  1.630E+03  0.000E+00  0.000E+00
   1   42   37    10    17    1.1597E+03  9.7776E+01   1.0620E+03  0.000E+00  0.000E+00  0.000E+00  2.09001E+03  1.203E-02  3.000E+00  1.630E+03  9.867E+01 -8.953E-01
   1   41   37    10    18    1.0620E+03 -2.0847E+02   1.2704E+03  0.000E+00  0.000E+00  0.000E+00  2.08001E+03  1.171E-02  3.000E+00  1.350E+03  0.000E+00  0.000E+00
   1   40   37    10    19    1.2704E+03 -2.8790E+02   1.5583E+03  0.000E+00  0.000E+00  0.000E+00  2.07402E+03  1.653E-02  3.000E+00  1.630E+03  0.000E+00  0.000E+00
   1   39   38    10    20    1.5583E+03  2.0477E+01   1.5379E+03  0.000E+00  0.000E+00  0.000E+00  2.07102E+03  1.882E-02  3.000E+00  1.630E+03  0.000E+00  0.000E+00
   1   38   38    10    21    1.5379E+03  6.7303E+01   1.4705E+03  0.000E+00  0.000E+00  0.000E+00  2.06702E+03  1.662E-02  3.000E+00  1.630E+03  0.000E+00  0.000E+00
   1   37   37    10    22    1.4705E+03 -2.6380E+02   1.7344E+03  0.000E+00  0.000E+00  0.000E+00  2.06102E+03  1.726E-02  3.000E+00  1.630E+03  0.000E+00  0.000E+00
   1   36   37    10    23    1.7344E+03 -1.8394E+02   1.9183E+03  0.000E+00  0.000E+00  0.000E+00  2.05702E+03  1.964E-02  3.000E+00  1.350E+03  0.000E+00  0.000E+00
   1   35   37    10    24    1.9183E+03 -4.4372E+01   1.9627E+03  0.000E+00  0.000E+00  0.000E+00  2.05401E+03  1.444E-02  3.000E+00  6.750E+02  0.000E+00  0.000E+00
   1   36   55    11     1    3.9559E+03 -2.5245E+01   3.9811E+03  0.000E+00  0.000E+00  0.000E+00  1.97603E+03  2.541E-02  3.000E+00  6.750E+02  0.000E+00  0.000E+00
   1   36   56    11     2    3.9811E+03  2.8528E+00   3.9783E+03  0.000E+00  0.000E+00  0.000E+00  1.97504E+03  4.275E-02  3.000E+00  1.630E+03  0.000E+00  0.000E+00
   1   37   57    11     3    3.9783E+03 -6.3333E+01   4.0416E+03  0.000E+00  0.000E+00  0.000E+00  1.97304E+03  4.294E-02  3.000E+00  1.630E+03  0.000E+00  0.000E+00
   1   37   58    11     4    4.0416E+03 -3.3636E+01   4.0752E+03  0.000E+00  0.000E+00  0.000E+00  1.97206E+03  5.684E-02  3.000E+00  1.350E+03  0.000E+00  0.000E+00
   1   37   59    11     5    4.0752E+03  6.7011E+01   4.0082E+03  0.000E+00  0.000E+00  0.000E+00  1.97205E+03  4.605E-02  3.000E+00  1.350E+03  0.000E+00  0.000E+00
   1   37   60    11     6    4.0082E+03  1.9512E+01   3.9887E+03  0.000E+00  0.000E+00  0.000E+00  1.97004E+03  3.678E-02  3.000E+00  1.630E+03  0.000E+00  0.000E+00
   1   38   61    11     7    3.9887E+03 -3.3900E+01   4.0226E+03  0.000E+00  0.000E+00  0.000E+00  1.96703E+03  3.328E-02  3.000E+00  1.630E+03  0.000E+00  0.000E+00
   1   38   62    11     8    4.0226E+03 -8.6057E+01   4.1087E+03  0.000E+00  0.000E+00  0.000E+00  1.96303E+03  3.049E-02  3.000E+00  6.750E+02  0.000E+00  0.000E+00
   1   51   11    12     1    0.0000E+00 -3.4260E+02   3.4260E+02  0.000E+00  0.000E+00  0.000E+00  2.38700E+03  3.736E-03  3.000E+00  1.909E+03  0.000E+00  0.000E+00
   1   50   12    12     2    3.4260E+02 -3.7682E+01   3.8028E+02  0.000E+00  0.000E+00  0.000E+00  2.37501E+03  5.575E-03  3.000E+00  1.630E+03  0.000E+00  0.000E+00
   1   49   12    12     3    3.8028E+02 -3.3802E+02   7.1830E+02  0.000E+00  0.000E+00  0.000E+00  2.36501E+03  7.489E-03  3.000E+00  1.630E+03  0.000E+00  0.000E+00
   1   48   13    12     4    7.1830E+02 -1.0891E+02   8.2721E+02  0.000E+00  0.000E+00  0.000E+00  2.35601E+03  9.867E-03  3.000E+00  1.630E+03  0.000E+00  0.000E+00
   1   48   14    12     5    8.2721E+02 -1.3357E+02   9.6078E+02  0.000E+00  0.000E+00  0.000E+00  2.35001E+03  1.056E-02  3.000E+00  1.630E+03  0.000E+00  0.000E+00
   1   47   15    12     6    9.6078E+02 -1.1710E+02   1.0779E+03  0.000E+00  0.000E+00  0.000E+00  2.34001E+03  1.165E-02  3.000E+00  1.630E+03  0.000E+00  0.000E+00
   1   47   16    12     7    1.0779E+03 -1.1308E+02   1.1910E+03  0.000E+00  0.000E+00  0.000E+00  2.33501E+03  1.363E-02  3.000E+00  1.630E+03  0.000E+00  0.000E+00
   1   46   17    12     8    1.1910E+03  1.1220E+02   1.0788E+03  0.000E+00  0.000E+00  0.000E+00  2.32901E+03  1.269E-02  3.000E+00  1.630E+03  0.000E+00  0.000E+00
   1   46   18    12     9    1.0788E+03  2.0353E+02   8.7524E+02  0.000E+00  0.000E+00  0.000E+00  2.32101E+03  9.442E-03  3.000E+00  1.350E+03  0.000E+00  0.000E+00
   1   46   19    12    10    8.7524E+02 -1.4238E+02   1.0176E+03  0.000E+00  0.000E+00  0.000E+00  2.30601E+03  1.053E-02  3.000E+00  1.350E+03  0.000E+00  0.000E+00
   1   46   20    12    11    1.0176E+03  9.7776E+01   9.1985E+02  0.000E+00  0.000E+00  0.000E+00  2.30601E+03  9.003E-03  3.000E+00  1.630E+03  9.782E+01 -4.142E-02
   1   45   21    12    12    9.1985E+02 -3.6471E+01   9.5632E+02  0.000E+00  0.000E+00  0.000E+00  2.27401E+03  7.829E-03  3.000E+00  1.909E+03  0.000E+00  0.000E+00
   1   44   22    12    13    9.5632E+02 -1.2723E+02   1.0835E+03  0.000E+00  0.000E+00  0.000E+00  2.25001E+03  8.910E-03  3.000E+00  1.909E+03  0.000E+00  0.000E+00
   1   43   23    12    14    1.0835E+03  1.8885E+02   8.9469E+02  0.000E+00  0.000E+00  0.000E+00  2.23101E+03  8.810E-03  3.000E+00  1.909E+03  0.000E+00  0.000E+00
   1   42   24    12    15    8.9469E+02 -5.0181E+01   9.4487E+02  0.000E+00  0.000E+00  0.000E+00  2.20801E+03  8.810E-03  3.000E+00  1.630E+03  0.000E+00  0.000E+00
   1   42   25    12    16    9.4487E+02  3.2151E+01   9.1272E+02  0.000E+00  0.000E+00  0.000E+00  2.20001E+03  9.552E-03  3.000E+00  1.350E+03  0.000E+00  0.000E+00
   1   42   26    12    17    9.1272E+02  1.6216E+02   7.5057E+02  0.000E+00  0.000E+00  0.000E+00  2.18801E+03  7.916E-03  3.000E+00  1.350E+03  0.000E+00  0.000E+00
   1   42   27    12    18    7.5057E+02 -2.4186E+02   9.9243E+02  0.000E+00  0.000E+00  0.000E+00  2.17001E+03  8.224E-03  3.000E+00  1.350E+03  0.000E+00  0.000E+00
   1   42   28    12    19    9.9243E+02 -7.1394E+01   1.0638E+03  0.000E+00  0.000E+00  0.000E+00  2.15901E+03  9.711E-03  3.000E+00  1.630E+03  0.000E+00  0.000E+00
   1   41   29    12    20    1.0638E+03  1.8832E+02   8.7551E+02  0.000E+00  0.000E+00  0.000E+00  2.14201E+03  9.446E-03  3.000E+00  1.909E+03  0.000E+00  0.000E+00
   1   40   30    12    21    8.7551E+02  1.2519E+02   7.5031E+02  0.000E+00  0.000E+00  0.000E+00  2.12701E+03  8.942E-03  3.000E+00  1.909E+03  0.000E+00  0.000E+00
   1   39   31    12    22    7.5031E+02  1.1455E+02   6.3576E+02  0.000E+00  0.000E+00  0.000E+00  2.11501E+03  8.418E-03  3.000E+00  1.909E+03  1.147E+02 -1.161E-01
   1   38   32    12    23    6.3576E+02  1.1455E+02   5.2121E+02  0.000E+00  0.000E+00  0.000E+00  2.10301E+03  7.374E-03  3.000E+00  1.909E+03  4.023E+01  7.432E+01
   1   37   33    12    24    5.2121E+02  5.2121E+02   0.0000E+00  0.000E+00  0.000E+00  0.000E+00  2.08900E+03  1.558E-03  3.000E+00  1.909E+03  0.000E+00  0.000E+00
   1   36   34    12    25    0.0000E+00 -4.6534E+01   4.6534E+01  0.000E+00  0.000E+00  0.000E+00  2.07700E+03  9.174E-04  3.000E+00  9.546E+02  0.000E+00  0.000E+00
   1   38   62    13     1    4.2573E+03 -9.0463E+01   4.3477E+03  0.000E+00  0.000E+00  0.000E+00  1.96302E+03  2.396E-02  3.000E+00  6.750E+02  0.000E+00  0.000E+00
   1   38   63    13     2    4.3477E+03 -1.8524E+01   4.3663E+03  0.000E+00  0.000E+00  0.000E+00  1.96457E+03  1.572E+00  3.000E+00  1.350E+03  0.000E+00  0.000E+00
   1   38   64    13     3    4.3663E+03  7.4946E+00   4.3588E+03  0.000E+00  0.000E+00  0.000E+00  1.96457E+03  1.574E+00  3.000E+00  1.350E+03  0.000E+00  0.000E+00
   1   38   65    13     4    4.3588E+03  6.0771E+00   4.3527E+03  0.000E+00  0.000E+00  0.000E+00  1.96304E+03  4.265E-02  3.000E+00  1.350E+03  0.000E+00  0.000E+00
   1   38   66    13     5    4.3527E+03 -5.9331E+01   4.4120E+03  0.000E+00  0.000E+00  0.000E+00  1.96004E+03  3.672E-02  3.000E+00  1.350E+03  0.000E+00  0.000E+00
   1   38   67    13     6    4.4120E+03 -2.4250E+01   4.4363E+03  0.000E+00  0.000E+00  0.000E+00  1.95804E+03  3.533E-02  3.000E+00  1.630E+03  0.000E+00  0.000E+00
   1   39   68    13     7    4.4363E+03  1.4374E+00   4.4348E+03  0.000E+00  0.000E+00  0.000E+00  1.95303E+03  3.179E-02  3.000E+00  1.630E+03  0.000E+00  0.000E+00
   1   39   69    13     8    4.4348E+03 -5.2820E+01   4.4876E+03  0.000E+00  0.000E+00  0.000E+00  1.94803E+03  3.356E-02  3.000E+00  1.350E+03  0.000E+00  0.000E+00
   1   39   70    13     9    4.4876E+03  3.7086E+01   4.4506E+03  0.000E+00  0.000E+00  0.000E+00  1.94603E+03  2.858E-02  3.000E+00  6.750E+02  0.000E+00  0.000E+00
   1   46   61    14     1    0.0000E+00  0.0000E+00   0.0000E+00  0.000E+00  0.000E+00  0.000E+00  2.01700E+03  0.000E+00  3.000E+00  1.350E+03  0.000E+00  0.000E+00
   1   45   61    14     2    0.0000E+00  0.0000E+00   0.0000E+00  0.000E+00  0.000E+00  0.000E+00  2.01000E+03  0.000E+00  3.000E+00  1.350E+03  0.000E+00  0.000E+00
   1   44   61    14     3    0.0000E+00  0.0000E+00   0.0000E+00  0.000E+00  0.000E+00  0.000E+00  2.00600E+03  0.000E+00  3.000E+00  1.350E+03  0.000E+00  0.000E+00
   1   43   61    14     4    0.0000E+00  0.0000E+00   0.0000E+00  0.000E+00  0.000E+00  0.000E+00  1.99900E+03  0.000E+00  3.000E+00  1.350E+03  0.000E+00  0.000E+00
   1   42   61    14     5    0.0000E+00  0.0000E+00   0.0000E+00  0.000E+00  0.000E+00  0.000E+00  1.99300E+03  0.000E+00  3.000E+00  1.350E+03  0.000E+00  0.000E+00
   1   41   61    14     6    0.0000E+00  0.0000E+00   0.0000E+00  0.000E+00  0.000E+00  0.000E+00  1.98500E+03  0.000E+00  3.000E+00  1.350E+03  0.000E+00  0.000E+00
   1   40   61    14     7    0.0000E+00  0.0000E+00   0.0000E+00  0.000E+00  0.000E+00  0.000E+00  1.97800E+03  0.000E+00  3.000E+00  1.350E+03  0.000E+00  0.000E+00
   1   39   61    14     8    0.0000E+00  0.0000E+00   0.0000E+00  0.000E+00  0.000E+00  0.000E+00  1.97300E+03  0.000E+00  3.000E+00  1.630E+03  0.000E+00  0.000E+00
   1   38   62    14     9    0.0000E+00 -1.4859E+02   1.4859E+02  0.000E+00  0.000E+00  0.000E+00  1.96300E+03  2.331E-03  3.000E+00  9.546E+02  0.000E+00  0.000E+00
   1   39   70    15     1    4.4506E+03  3.3802E+01   4.4168E+03  0.000E+00  0.000E+00  0.000E+00  1.94602E+03  2.371E-02  3.000E+00  6.750E+02  0.000E+00  0.000E+00
   1   39   71    15     2    4.4168E+03 -7.5327E+01   4.4921E+03  0.000E+00  0.000E+00  0.000E+00  1.94204E+03  3.924E-02  3.000E+00  1.630E+03  0.000E+00  0.000E+00
   1   40   72    15     3    4.4921E+03  7.0590E+00   4.4850E+03  0.000E+00  0.000E+00  0.000E+00  1.94104E+03  4.215E-02  3.000E+00  1.630E+03  0.000E+00  0.000E+00
   1   40   73    15     4    4.4850E+03 -2.0171E+01   4.5052E+03  0.000E+00  0.000E+00  0.000E+00  1.93804E+03  3.729E-02  3.000E+00  1.350E+03  0.000E+00  0.000E+00
   1   40   74    15     5    4.5052E+03 -5.8431E+00   4.5110E+03  0.000E+00  0.000E+00  0.000E+00  1.93604E+03  3.994E-02  3.000E+00  1.350E+03  0.000E+00  0.000E+00
   1   40   75    15     6    4.5110E+03  4.7147E+00   4.5063E+03  0.000E+00  0.000E+00  0.000E+00  1.93404E+03  3.537E-02  3.000E+00  6.750E+02  0.000E+00  0.000E+00
   1   40   75    16     1    4.5324E+03  1.3855E+00   4.5311E+03  0.000E+00  0.000E+00  0.000E+00  1.93403E+03  3.044E-02  3.000E+00  6.750E+02  0.000E+00  0.000E+00
   1   40   76    16     2    4.5311E+03  0.0000E+00   4.5311E+03  0.000E+00  0.000E+00  0.000E+00  1.93304E+03  4.367E-02  3.000E+00  0.000E+00  0.000E+00  0.000E+00
   1   55   73    17     1    0.0000E+00  0.0000E+00   0.0000E+00  0.000E+00  0.000E+00  0.000E+00  2.04100E+03  0.000E+00  3.000E+00  1.350E+03  0.000E+00  0.000E+00
   1   54   73    17     2    0.0000E+00  0.0000E+00   0.0000E+00  0.000E+00  0.000E+00  0.000E+00  2.02900E+03  0.000E+00  3.000E+00  1.350E+03  0.000E+00  0.000E+00
   1   53   73    17     3    0.0000E+00  0.0000E+00   0.0000E+00  0.000E+00  0.000E+00  0.000E+00  2.01700E+03  0.000E+00  3.000E+00  1.350E+03  0.000E+00  0.000E+00
   1   52   73    17     4    0.0000E+00  0.0000E+00   0.0000E+00  0.000E+00  0.000E+00  0.000E+00  2.01000E+03  0.000E+00  3.000E+00  1.630E+03  0.000E+00  0.000E+00
   1   51   72    17     5    0.0000E+00 -2.0693E+02   2.0693E+02  0.000E+00  0.000E+00  0.000E+00  1.99800E+03  2.844E-03  3.000E+00  1.630E+03  0.000E+00  0.000E+00
   1   50   72    17     6    2.0693E+02  2.1814E+01   1.8512E+02  0.000E+00  0.000E+00  0.000E+00  1.99300E+03  4.378E-03  3.000E+00  1.350E+03  0.000E+00  0.000E+00
   1   49   72    17     7    1.8512E+02 -4.9883E+01   2.3500E+02  0.000E+00  0.000E+00  0.000E+00  1.98600E+03  4.359E-03  3.000E+00  1.350E+03  0.000E+00  0.000E+00
   1   48   72    17     8    2.3500E+02 -6.0965E+01   2.9596E+02  0.000E+00  0.000E+00  0.000E+00  1.97901E+03  5.014E-03  3.000E+00  1.350E+03  0.000E+00  0.000E+00
   1   47   72    17     9    2.9596E+02 -1.3600E+02   4.3197E+02  0.000E+00  0.000E+00  0.000E+00  1.97201E+03  6.196E-03  3.000E+00  1.350E+03  0.000E+00  0.000E+00
   1   46   72    17    10    4.3197E+02  2.6869E+01   4.0510E+02  0.000E+00  0.000E+00  0.000E+00  1.96601E+03  6.902E-03  3.000E+00  1.350E+03  0.000E+00  0.000E+00
   1   45   72    17    11    4.0510E+02  3.8737E+01   3.6636E+02  0.000E+00  0.000E+00  0.000E+00  1.96001E+03  6.639E-03  3.000E+00  1.630E+03  0.000E+00  0.000E+00
   1   44   73    17    12    3.6636E+02  1.9865E+01   3.4650E+02  0.000E+00  0.000E+00  0.000E+00  1.95201E+03  6.474E-03  3.000E+00  1.630E+03  0.000E+00  0.000E+00
   1   43   73    17    13    3.4650E+02 -5.8016E+00   3.5230E+02  0.000E+00  0.000E+00  0.000E+00  1.94701E+03  6.994E-03  3.000E+00  1.350E+03  0.000E+00  0.000E+00
   1   42   73    17    14    3.5230E+02  5.5405E+01   2.9689E+02  0.000E+00  0.000E+00  0.000E+00  1.94401E+03  6.835E-03  3.000E+00  1.630E+03  0.000E+00  0.000E+00
   1   41   74    17    15    2.9689E+02  2.9689E+02   0.0000E+00  0.000E+00  0.000E+00  0.000E+00  1.93800E+03  1.481E-03  3.000E+00  1.909E+03  0.000E+00  0.000E+00
   1   40   75    17    16    0.0000E+00 -2.6126E+01   2.6126E+01  0.000E+00  0.000E+00  0.000E+00  1.93400E+03  1.013E-03  3.000E+00  9.546E+02  0.000E+00  0.000E+00
   1   37   55    18     1    0.0000E+00  0.0000E+00   0.0000E+00  0.000E+00  0.000E+00  0.000E+00  2.00700E+03  0.000E+00  3.000E+00  1.630E+03  0.000E+00  0.000E+00
   1   36   54    19     1    0.0000E+00  0.0000E+00   0.0000E+00  0.000E+00  0.000E+00  0.000E+00  2.00700E+03  0.000E+00  3.000E+00  1.630E+03  0.000E+00  0.000E+00



1
  VOLUMETRIC BUDGET FOR UNSATURATED ZONE BENEATH STREAMS AT END OF TIME STEP     1 STRESS PERIOD   2
  ------------------------------------------------------------------------------------------------

    CUMULATIVE VOLUMES             L**3    RATES FOR THIS TIME STEP         L**3/T
    ------------------                     ------------------------


          STREAM LOSS =         1376.6672            STREAM LOSS =          816.2350
    CHANGE IN STORAGE =          215.0234      CHANGE IN STORAGE =          215.0234
       RECHARGE TO GW =         1161.6438         RECHARGE TO GW =          601.2116

             TOTAL IN =         1376.6672               TOTAL IN =          816.2350

            TOTAL OUT =         1376.6672              TOTAL OUT =          816.2350

             IN - OUT =            0.0000               IN - OUT =       -6.1035E-05

  PERCENT DISCREPANCY =            0.00      PERCENT DISCREPANCY =            -0.00



 ***WARNING***NUZTOP IS 3 AND ALL LAYERS  IN ROW           39  AND COLUMN           76  ARE INACTIVE.
 UNSATURATED FLOW WILL NOT BE ADDED TO ANY LAYER-- SOME WATER MAY FLOW PAST LOWEST LAYER
 ***WARNING***NUZTOP IS 3 AND ALL LAYERS  IN ROW           40  AND COLUMN           76  ARE INACTIVE.
 UNSATURATED FLOW WILL NOT BE ADDED TO ANY LAYER-- SOME WATER MAY FLOW PAST LOWEST LAYER


UNSATURATED ZONE PACKAGE VOLUMETRIC BUDGET FOR  TIME STEP     1 STRESS PERIOD    2
  ------------------------------------------------------------------------------



     CUMULATIVE VOLUMES      L**3       RATES FOR THIS TIME STEP      L**3/T
     ------------------                 ------------------------

           IN:                                      IN:
           ---                                      ---
        INFILTRATION =       26653.0419          INFILTRATION =       0.0000E+00

          OUT:                                     OUT:
          ----                                     ----
              UZF ET =       75018.8420                UZF ET =       75018.8420
        UZF RECHARGE =       59423.8544          UZF RECHARGE =       32770.8125

            IN - OUT =     -107789.6545              IN - OUT =     -107789.6545

          STORAGE:                                 STORAGE:
          --------                                 --------
      STORAGE CHANGE =     -107192.6764        STORAGE CHANGE =     -107192.6764

 PERCENT DISCREPANCY IS DIFFERENCE BETWEEN IN-OUT MINUS CHANGE IN STORAGE
 DIVIDED BY THE AVERAGE OF IN AND OUT TIMES 100

 PERCENT DISCREPANCY =          -0.11     PERCENT DISCREPANCY =          -0.55








        GW IRRIGATION     PERIOD    2   STEP   1

1
  VOLUMETRIC BUDGET FOR AGRICULTURAL FIELDS AT  END OF TIME STEP    1, STRESS PERIOD   2
  ------------------------------------------------------------------------------

     CUMULATIVE VOLUMES      L**3       RATES FOR THIS TIME STEP      L**3/T
     ------------------                 ------------------------

           IN:                                      IN:
           ---                                      ---
               AG WELLS  =           0.0000                 AG WELLS  =          -0.0000
      DIVERSION SEGMENTS =           0.0000        DIVERSION SEGMENTS =           0.0000
       IRRIGATION PONDS  =           0.0000         IRRIGATION PONDS  =           0.0000
           GW IRRIGATION =           0.0000             GW IRRIGATION =           0.0000
           SW IRRIGATION =           0.0000             SW IRRIGATION =           0.0000
        SYSTEM LOSSES GW =           0.0000          SYSTEM LOSSES GW =           0.0000
        SYSTEM LOSSES SW =           0.0000          SYSTEM LOSSES SW =          -0.0000

                TOTAL IN =           0.0000                  TOTAL IN =           0.0000

          OUT:                                     OUT:
          ----                                     ----
               AG WELLS  =           0.0000                 AG WELLS  =           0.0000
      DIVERSION SEGMENTS =           0.0000        DIVERSION SEGMENTS =           0.0000
       IRRIGATION PONDS  =           0.0000         IRRIGATION PONDS  =           0.0000
           GW IRRIGATION =           0.0000             GW IRRIGATION =           0.0000
           SW IRRIGATION =           0.0000             SW IRRIGATION =           0.0000
        SYSTEM LOSSES GW =           0.0000          SYSTEM LOSSES GW =           0.0000
        SYSTEM LOSSES SW =           0.0000          SYSTEM LOSSES SW =           0.0000

               TOTAL OUT =           0.0000                 TOTAL OUT =           0.0000

                IN - OUT =           0.0000                  IN - OUT =           0.0000

     PERCENT DISCREPANCY =           0.00         PERCENT DISCREPANCY =           0.00




 HEAD WILL BE SAVED ON UNIT   58 AT END OF TIME STEP    1, STRESS PERIOD    2
1
  VOLUMETRIC BUDGET FOR ENTIRE MODEL AT END OF TIME STEP    1, STRESS PERIOD   2
  ------------------------------------------------------------------------------

     CUMULATIVE VOLUMES      L**3       RATES FOR THIS TIME STEP      L**3/T
     ------------------                 ------------------------

           IN:                                      IN:
           ---                                      ---
             STORAGE     =           0.3835               STORAGE     =           0.3835
       CONSTANT HEAD     =           0.0000         CONSTANT HEAD     =           0.0000
      STREAM LEAKAGE     =        8226.4248        STREAM LEAKAGE     =        4301.2808
        UZF RECHARGE     =       59437.3555          UZF RECHARGE     =       32770.9062
               GW ET     =           0.0000                 GW ET     =           0.0000
     SURFACE LEAKAGE     =           0.0000       SURFACE LEAKAGE     =           0.0000
           AG WELLS      =           0.0000             AG WELLS      =           0.0000

                TOTAL IN =       67664.1641                  TOTAL IN =       37072.5703

          OUT:                                     OUT:
          ----                                     ----
             STORAGE     =       20861.2891               STORAGE     =       20861.2891
       CONSTANT HEAD     =          71.4723         CONSTANT HEAD     =          35.8905
      STREAM LEAKAGE     =       15362.8271        STREAM LEAKAGE     =        9043.0215
        UZF RECHARGE     =           0.0000          UZF RECHARGE     =           0.0000
               GW ET     =       31294.0938                 GW ET     =        7097.3076
     SURFACE LEAKAGE     =          59.6414       SURFACE LEAKAGE     =          33.4923
           AG WELLS      =           0.0000             AG WELLS      =           0.0000

               TOTAL OUT =       67649.3281                 TOTAL OUT =       37071.0000

                IN - OUT =          14.8359                  IN - OUT =           1.5703

     PERCENT DISCREPANCY =           0.02         PERCENT DISCREPANCY =           0.00






         TIME SUMMARY AT END OF TIME STEP    1 IN STRESS PERIOD    2
                    SECONDS     MINUTES      HOURS       DAYS        YEARS
                    -----------------------------------------------------------
   TIME STEP LENGTH  86400.      1440.0      24.000      1.0000     2.73785E-03
 STRESS PERIOD TIME  86400.      1440.0      24.000      1.0000     2.73785E-03
         TOTAL TIME 1.72800E+05  2880.0      48.000      2.0000     5.47570E-03
1
                                                   Max.-Head-Change                         Max.-Flux-Residual
  Residual-Control   Outer-Iter.   Inner-Iter.     Column Row Layer    Maximum-Head-Change  Column Row Layer    Maximum-Flux-Residual          L2-NORM 
          0                 1           4            21   37     1       0.1647114751E+01      33   37    1         0.4865152545E+03      0.8495691231E+03
          0                 2           3            30   56     1       0.7028348564E+00      74   41    1        -0.3411613797E+03      0.4949133397E+03
          0                 3           3            63   38     1       0.2449220967E-01      74   41    1         0.8170775825E+02      0.1059113013E+03
          0                 4           3            63   38     1       0.7106159715E-01      63   38    1         0.1006435700E+03      0.1335252281E+03
          0                 5           3            64   38     1       0.1580823961E-01      64   38    1         0.2266598420E+02      0.2373886844E+02
          0                 6           2            63   38     1      -0.2587421961E-02      63   38    1        -0.3879402462E+01      0.4388727253E+01
          0                 7           2            63   38     1      -0.1073084284E-02      63   38    1        -0.1579745258E+01      0.2317169611E+01
          0                 8           1            64   38     1      -0.4565374684E-03      64   38    1        -0.6751923274E+00      0.8441669452E+00

    ------------------------------------------------
       NWT REQUIRED            8 OUTER ITERATIONS 
       AND A TOTAL OF         21 INNER ITERATIONS.
    ------------------------------------------------

 NO OUTPUT CONTROL FOR STRESS PERIOD    2   TIME STEP    2
 ***WARNING***NUZTOP IS 3 AND ALL LAYERS  IN ROW           39  AND COLUMN           76  ARE INACTIVE.
 UNSATURATED FLOW WILL NOT BE ADDED TO ANY LAYER-- SOME WATER MAY FLOW PAST LOWEST LAYER
 ***WARNING***NUZTOP IS 3 AND ALL LAYERS  IN ROW           40  AND COLUMN           76  ARE INACTIVE.
 UNSATURATED FLOW WILL NOT BE ADDED TO ANY LAYER-- SOME WATER MAY FLOW PAST LOWEST LAYER
                                                   Max.-Head-Change                         Max.-Flux-Residual
  Residual-Control   Outer-Iter.   Inner-Iter.     Column Row Layer    Maximum-Head-Change  Column Row Layer    Maximum-Flux-Residual          L2-NORM 
          0                 1           4            30   56     1       0.1372124291E+01      33   37    1         0.3410124994E+03      0.6994463417E+03
          0                 2           3             6   59     1       0.8360580543E+00      55   35    1         0.6471957298E+02      0.1514067895E+03
          0                 3           3            64   38     1       0.1501563885E-01      64   38    1         0.2114581829E+02      0.4971182334E+02
          0                 4           3            63   38     1       0.4210603760E-01      63   38    1         0.5962421586E+02      0.7960732006E+02
          0                 5           3            64   38     1       0.1935942807E-01      64   38    1         0.2742140073E+02      0.3396380833E+02
          0                 6           2            64   38     1       0.6171182196E-02      64   38    1         0.8771447055E+01      0.9992491599E+01
          0                 7           2            64   38     1       0.1528333444E-02      64   38    1         0.2176239312E+01      0.2407100713E+01
          0                 8           1            64   38     1       0.3287080406E-03      64   38    1         0.4684261768E+00      0.5322882650E+00

    ------------------------------------------------
       NWT REQUIRED            8 OUTER ITERATIONS 
       AND A TOTAL OF         21 INNER ITERATIONS.
    ------------------------------------------------

 NO OUTPUT CONTROL FOR STRESS PERIOD    2   TIME STEP    3
 ***WARNING***NUZTOP IS 3 AND ALL LAYERS  IN ROW           39  AND COLUMN           76  ARE INACTIVE.
 UNSATURATED FLOW WILL NOT BE ADDED TO ANY LAYER-- SOME WATER MAY FLOW PAST LOWEST LAYER
 ***WARNING***NUZTOP IS 3 AND ALL LAYERS  IN ROW           40  AND COLUMN           76  ARE INACTIVE.
 UNSATURATED FLOW WILL NOT BE ADDED TO ANY LAYER-- SOME WATER MAY FLOW PAST LOWEST LAYER
                                                   Max.-Head-Change                         Max.-Flux-Residual
  Residual-Control   Outer-Iter.   Inner-Iter.     Column Row Layer    Maximum-Head-Change  Column Row Layer    Maximum-Flux-Residual          L2-NORM 
          0                 1           4             6   59     1       0.1854996159E+01      69   37    1         0.2145670113E+03      0.5840422846E+03
          0                 2           3            11   48     1       0.1647045141E+01      69   37    1        -0.1606312182E+03      0.2201008325E+03
          0                 3           3            64   38     1       0.1369040965E-01      64   38    1         0.1930531359E+02      0.4265514982E+02
          0                 4           3            63   38     1       0.2360708617E-01      63   38    1         0.3339545574E+02      0.4590366941E+02
          0                 5           3            64   38     1       0.1169702644E-01      64   38    1         0.1655572580E+02      0.2094967818E+02
          0                 6           2            64   38     1       0.3982001256E-02      64   38    1         0.5654782089E+01      0.6599658829E+01
          0                 7           2            64   38     1       0.1051209954E-02      64   38    1         0.1495620417E+01      0.1701924154E+01
          0                 8           1            64   38     1       0.2390817983E-03      64   38    1         0.3404758866E+00      0.4092225612E+00

    ------------------------------------------------
       NWT REQUIRED            8 OUTER ITERATIONS 
       AND A TOTAL OF         21 INNER ITERATIONS.
    ------------------------------------------------

 NO OUTPUT CONTROL FOR STRESS PERIOD    2   TIME STEP    4
 ***WARNING***NUZTOP IS 3 AND ALL LAYERS  IN ROW           39  AND COLUMN           76  ARE INACTIVE.
 UNSATURATED FLOW WILL NOT BE ADDED TO ANY LAYER-- SOME WATER MAY FLOW PAST LOWEST LAYER
 ***WARNING***NUZTOP IS 3 AND ALL LAYERS  IN ROW           40  AND COLUMN           76  ARE INACTIVE.
 UNSATURATED FLOW WILL NOT BE ADDED TO ANY LAYER-- SOME WATER MAY FLOW PAST LOWEST LAYER
                                                   Max.-Head-Change                         Max.-Flux-Residual
  Residual-Control   Outer-Iter.   Inner-Iter.     Column Row Layer    Maximum-Head-Change  Column Row Layer    Maximum-Flux-Residual          L2-NORM 
          0                 1           3            49   23     1       0.1026712379E+01      69   37    1         0.1337594173E+03      0.5060512080E+03
          0                 2           3            45   16     1       0.1641347659E+00      69   38    1         0.7881401235E+02      0.1186980001E+03
          0                 3           2            69   38     1       0.8186060975E-02      69   38    1         0.1026466842E+02      0.2600677369E+02
          0                 4           2            63   38     1       0.2821394192E-02      63   38    1         0.4186010701E+01      0.8391663992E+01
          0                 5           2            64   38     1       0.1297187024E-02      64   38    1         0.1907127992E+01      0.3430383774E+01
          0                 6           1            64   38     1       0.5527573708E-03      64   38    1         0.8159409920E+00      0.1325453479E+01

    ------------------------------------------------
       NWT REQUIRED            6 OUTER ITERATIONS 
       AND A TOTAL OF         13 INNER ITERATIONS.
    ------------------------------------------------

 NO OUTPUT CONTROL FOR STRESS PERIOD    2   TIME STEP    5
 ***WARNING***NUZTOP IS 3 AND ALL LAYERS  IN ROW           39  AND COLUMN           76  ARE INACTIVE.
 UNSATURATED FLOW WILL NOT BE ADDED TO ANY LAYER-- SOME WATER MAY FLOW PAST LOWEST LAYER
 ***WARNING***NUZTOP IS 3 AND ALL LAYERS  IN ROW           40  AND COLUMN           76  ARE INACTIVE.
 UNSATURATED FLOW WILL NOT BE ADDED TO ANY LAYER-- SOME WATER MAY FLOW PAST LOWEST LAYER
                                                   Max.-Head-Change                         Max.-Flux-Residual
  Residual-Control   Outer-Iter.   Inner-Iter.     Column Row Layer    Maximum-Head-Change  Column Row Layer    Maximum-Flux-Residual          L2-NORM 
          0                 1           4            45   16     1       0.2500809665E+01      69   38    1         0.1576171713E+03      0.6390454710E+03
          0                 2           3            39   53     1       0.4261102704E+00      69   38    1         0.1432921079E+03      0.2635343957E+03
          0                 3           3            64   38     1       0.6102958505E-01      64   38    1         0.8606279764E+02      0.1235297825E+03
          0                 4           3            54   34     1       0.2962692047E+00      54   34    1         0.3688026821E+03      0.3811090280E+03
          0                 5           3            54   34     1       0.5759913555E-01      54   34    1         0.7171693938E+02      0.7737315968E+02
          0                 6           2            54   34     1       0.8835856576E-02      54   34    1         0.1099981293E+02      0.1400723529E+02
          0                 7           2            64   38     1       0.1292410791E-02      64   38    1         0.1838578002E+01      0.2643599878E+01
          0                 8           1            64   38     1       0.2759628956E-03      64   38    1         0.3931025196E+00      0.5229822919E+00

    ------------------------------------------------
       NWT REQUIRED            8 OUTER ITERATIONS 
       AND A TOTAL OF         21 INNER ITERATIONS.
    ------------------------------------------------

 NO OUTPUT CONTROL FOR STRESS PERIOD    2   TIME STEP    6
 ***WARNING***NUZTOP IS 3 AND ALL LAYERS  IN ROW           39  AND COLUMN           76  ARE INACTIVE.
 UNSATURATED FLOW WILL NOT BE ADDED TO ANY LAYER-- SOME WATER MAY FLOW PAST LOWEST LAYER
 ***WARNING***NUZTOP IS 3 AND ALL LAYERS  IN ROW           40  AND COLUMN           76  ARE INACTIVE.
 UNSATURATED FLOW WILL NOT BE ADDED TO ANY LAYER-- SOME WATER MAY FLOW PAST LOWEST LAYER
                                                   Max.-Head-Change                         Max.-Flux-Residual
  Residual-Control   Outer-Iter.   Inner-Iter.     Column Row Layer    Maximum-Head-Change  Column Row Layer    Maximum-Flux-Residual          L2-NORM 
          0                 1           4            45   33     1       0.5135312612E+00      54   34    1         0.4513063114E+03      0.8108740388E+03
          0                 2           3            38   62     1       0.6571001242E+00      69   38    1         0.6594114784E+02      0.1521371039E+03
          0                 3           3            55   35     1       0.1934442021E-01      55   35    1         0.2513570611E+02      0.4064097132E+02
          0                 4           3            63   38     1       0.1161218607E-01      63   38    1         0.1639910666E+02      0.2491526737E+02
          0                 5           2            64   38     1       0.5306508590E-02      64   38    1         0.7515483544E+01      0.9657647248E+01
          0                 6           2            64   38     1       0.1610154161E-02      64   38    1         0.2287446585E+01      0.2808571794E+01
          0                 7           1            64   38     1       0.3887109017E-03      64   38    1         0.5531019924E+00      0.7525352444E+00

    ------------------------------------------------
       NWT REQUIRED            7 OUTER ITERATIONS 
       AND A TOTAL OF         18 INNER ITERATIONS.
    ------------------------------------------------

 NO OUTPUT CONTROL FOR STRESS PERIOD    2   TIME STEP    7
 ***WARNING***NUZTOP IS 3 AND ALL LAYERS  IN ROW           39  AND COLUMN           76  ARE INACTIVE.
 UNSATURATED FLOW WILL NOT BE ADDED TO ANY LAYER-- SOME WATER MAY FLOW PAST LOWEST LAYER
 ***WARNING***NUZTOP IS 3 AND ALL LAYERS  IN ROW           40  AND COLUMN           76  ARE INACTIVE.
 UNSATURATED FLOW WILL NOT BE ADDED TO ANY LAYER-- SOME WATER MAY FLOW PAST LOWEST LAYER
                                                   Max.-Head-Change                         Max.-Flux-Residual
  Residual-Control   Outer-Iter.   Inner-Iter.     Column Row Layer    Maximum-Head-Change  Column Row Layer    Maximum-Flux-Residual          L2-NORM 
          0                 1           4            54   63     1       0.1411150669E+01      54   34    1         0.4467795493E+03      0.8200364344E+03
          0                 2           3            49   22     1       0.2093811867E+01      69   38    1        -0.1383472707E+03      0.1828803662E+03
          0                 3           2            49   23     1       0.1880069414E-01      64   38    1         0.1333595309E+02      0.3024946321E+02
          0                 4           2            64   38     1       0.7800281447E-02      63   38    1         0.1134859709E+02      0.1739877436E+02
          0                 5           2            64   38     1       0.3487588894E-02      64   38    1         0.4930836690E+01      0.6803763990E+01
          0                 6           2            64   38     1       0.1106398831E-02      64   38    1         0.1567886141E+01      0.2146503901E+01
          0                 7           1            64   38     1       0.2931029126E-03      64   38    1         0.4159157509E+00      0.6548270588E+00

    ------------------------------------------------
       NWT REQUIRED            7 OUTER ITERATIONS 
       AND A TOTAL OF         16 INNER ITERATIONS.
    ------------------------------------------------

 NO OUTPUT CONTROL FOR STRESS PERIOD    2   TIME STEP    8
 ***WARNING***NUZTOP IS 3 AND ALL LAYERS  IN ROW           39  AND COLUMN           76  ARE INACTIVE.
 UNSATURATED FLOW WILL NOT BE ADDED TO ANY LAYER-- SOME WATER MAY FLOW PAST LOWEST LAYER
 ***WARNING***NUZTOP IS 3 AND ALL LAYERS  IN ROW           40  AND COLUMN           76  ARE INACTIVE.
 UNSATURATED FLOW WILL NOT BE ADDED TO ANY LAYER-- SOME WATER MAY FLOW PAST LOWEST LAYER
                                                   Max.-Head-Change                         Max.-Flux-Residual
  Residual-Control   Outer-Iter.   Inner-Iter.     Column Row Layer    Maximum-Head-Change  Column Row Layer    Maximum-Flux-Residual          L2-NORM 
          0                 1           4            66   10     1       0.1725865700E+01      69   38    1         0.2473298797E+03      0.5871342254E+03
          0                 2           3            63   38     1      -0.4204275657E-01      63   38    1        -0.5965070738E+02      0.1074450790E+03
          0                 3           3            63   38     1      -0.4154568077E-01      63   38    1        -0.5871166511E+02      0.8707392877E+02
          0                 4           3            63   38     1      -0.4018765617E-01      63   38    1        -0.5675468528E+02      0.8153332971E+02
          0                 5           3            64   38     1      -0.1834846163E-01      64   38    1        -0.2599877610E+02      0.3233808054E+02
          0                 6           2            64   38     1      -0.5431639308E-02      64   38    1        -0.7721514492E+01      0.9153579241E+01
          0                 7           2            64   38     1      -0.1235918801E-02      64   38    1        -0.1760354859E+01      0.2326473927E+01
          0                 8           1            67   25     1       0.4331317812E-03      67   25    1         0.5459551008E+00      0.7249392631E+00

    ------------------------------------------------
       NWT REQUIRED            8 OUTER ITERATIONS 
       AND A TOTAL OF         21 INNER ITERATIONS.
    ------------------------------------------------

 NO OUTPUT CONTROL FOR STRESS PERIOD    2   TIME STEP    9
 ***WARNING***NUZTOP IS 3 AND ALL LAYERS  IN ROW           39  AND COLUMN           76  ARE INACTIVE.
 UNSATURATED FLOW WILL NOT BE ADDED TO ANY LAYER-- SOME WATER MAY FLOW PAST LOWEST LAYER
 ***WARNING***NUZTOP IS 3 AND ALL LAYERS  IN ROW           40  AND COLUMN           76  ARE INACTIVE.
 UNSATURATED FLOW WILL NOT BE ADDED TO ANY LAYER-- SOME WATER MAY FLOW PAST LOWEST LAYER
                                                   Max.-Head-Change                         Max.-Flux-Residual
  Residual-Control   Outer-Iter.   Inner-Iter.     Column Row Layer    Maximum-Head-Change  Column Row Layer    Maximum-Flux-Residual          L2-NORM 
          0                 1           3            66   10     2       0.3664259509E+00      66   24    1         0.1123889216E+03      0.4360994088E+03
          0                 2           3            22   37     1       0.2015403196E+01      67   25    1         0.6974770211E+02      0.1175996229E+03
          0                 3           3            67   25     1       0.3477057043E-01      67   25    1         0.4383164465E+02      0.5609602221E+02
          0                 4           3            67   25     1       0.1731058567E-01      67   25    1         0.2182294404E+02      0.2841513010E+02
          0                 5           2            67   25     1       0.7869983370E-02      67   25    1         0.9921354233E+01      0.1237960297E+02
          0                 6           2            67   25     1       0.3441168201E-02      67   25    1         0.4338083484E+01      0.5108033035E+01
          0                 7           2            67   25     1       0.1478546210E-02      67   25    1         0.1863888523E+01      0.2123004025E+01
          0                 8           1            67   25     1       0.6302244701E-03      67   25    1         0.7944694417E+00      0.8948534860E+00

    ------------------------------------------------
       NWT REQUIRED            8 OUTER ITERATIONS 
       AND A TOTAL OF         19 INNER ITERATIONS.
    ------------------------------------------------

 NO OUTPUT CONTROL FOR STRESS PERIOD    2   TIME STEP   10
 ***WARNING***NUZTOP IS 3 AND ALL LAYERS  IN ROW           39  AND COLUMN           76  ARE INACTIVE.
 UNSATURATED FLOW WILL NOT BE ADDED TO ANY LAYER-- SOME WATER MAY FLOW PAST LOWEST LAYER
 ***WARNING***NUZTOP IS 3 AND ALL LAYERS  IN ROW           40  AND COLUMN           76  ARE INACTIVE.
 UNSATURATED FLOW WILL NOT BE ADDED TO ANY LAYER-- SOME WATER MAY FLOW PAST LOWEST LAYER
                                                   Max.-Head-Change                         Max.-Flux-Residual
  Residual-Control   Outer-Iter.   Inner-Iter.     Column Row Layer    Maximum-Head-Change  Column Row Layer    Maximum-Flux-Residual          L2-NORM 
          0                 1           3            22   37     1       0.5617627669E+00      67   25    1         0.1577519783E+03      0.4366844276E+03
          0                 2           3            51   57     1       0.2859460439E+01      51   57    1         0.3045220077E+02      0.7833191377E+02
          0                 3           2            51   57     1      -0.4405933980E-01      64   38    1         0.8982705240E+01      0.2207279893E+02
          0                 4           2            63   38     1       0.6538149790E-02      63   38    1         0.9230990684E+01      0.1442412241E+02
          0                 5           2            64   38     1       0.3025024701E-02      64   38    1         0.4284074601E+01      0.5789114591E+01
          0                 6           1            64   38     1       0.9462002852E-03      64   38    1         0.1343988465E+01      0.1831132329E+01

    ------------------------------------------------
       NWT REQUIRED            6 OUTER ITERATIONS 
       AND A TOTAL OF         13 INNER ITERATIONS.
    ------------------------------------------------

 NO OUTPUT CONTROL FOR STRESS PERIOD    2   TIME STEP   11
 ***WARNING***NUZTOP IS 3 AND ALL LAYERS  IN ROW           39  AND COLUMN           76  ARE INACTIVE.
 UNSATURATED FLOW WILL NOT BE ADDED TO ANY LAYER-- SOME WATER MAY FLOW PAST LOWEST LAYER
 ***WARNING***NUZTOP IS 3 AND ALL LAYERS  IN ROW           40  AND COLUMN           76  ARE INACTIVE.
 UNSATURATED FLOW WILL NOT BE ADDED TO ANY LAYER-- SOME WATER MAY FLOW PAST LOWEST LAYER
                                                   Max.-Head-Change                         Max.-Flux-Residual
  Residual-Control   Outer-Iter.   Inner-Iter.     Column Row Layer    Maximum-Head-Change  Column Row Layer    Maximum-Flux-Residual          L2-NORM 
          0                 1           3             5   59     1       0.1976627298E+01      67   25    1         0.1557690614E+03      0.4174028983E+03
          0                 2           3             4   58     1       0.1103108821E+01      66   19    1         0.2216167362E+02      0.6308104740E+02
          0                 3           2             8   54     1       0.4049438400E-02      46   43    1         0.3627744120E+01      0.1582098315E+02
          0                 4           2            63   38     1      -0.1861131568E-02      63   38    1        -0.2746417174E+01      0.6500625302E+01
          0                 5           1            64   38     1      -0.9261597260E-03      64   38    1        -0.1366499833E+01      0.2690843627E+01

    ------------------------------------------------
       NWT REQUIRED            5 OUTER ITERATIONS 
       AND A TOTAL OF         11 INNER ITERATIONS.
    ------------------------------------------------

 NO OUTPUT CONTROL FOR STRESS PERIOD    2   TIME STEP   12
 ***WARNING***NUZTOP IS 3 AND ALL LAYERS  IN ROW           39  AND COLUMN           76  ARE INACTIVE.
 UNSATURATED FLOW WILL NOT BE ADDED TO ANY LAYER-- SOME WATER MAY FLOW PAST LOWEST LAYER
 ***WARNING***NUZTOP IS 3 AND ALL LAYERS  IN ROW           40  AND COLUMN           76  ARE INACTIVE.
 UNSATURATED FLOW WILL NOT BE ADDED TO ANY LAYER-- SOME WATER MAY FLOW PAST LOWEST LAYER
                                                   Max.-Head-Change                         Max.-Flux-Residual
  Residual-Control   Outer-Iter.   Inner-Iter.     Column Row Layer    Maximum-Head-Change  Column Row Layer    Maximum-Flux-Residual          L2-NORM 
          0                 1           3            43   15     1       0.1395701824E+01      67   25    1         0.1450954304E+03      0.3857572260E+03
          0                 2           3            71   19     1       0.1124771875E+01      55   35    1         0.2644358524E+03      0.2816027418E+03
          0                 3           3            64   38     1      -0.1662271423E-01      64   38    1        -0.2357968185E+02      0.3411913018E+02
          0                 4           2            64   38     1      -0.7666103084E-02      64   38    1        -0.1084111476E+02      0.1495599260E+02
          0                 5           2            64   38     1      -0.2921291837E-02      64   38    1        -0.4141818923E+01      0.5382312114E+01
          0                 6           1            64   38     1      -0.8125336483E-03      64   38    1        -0.1155208650E+01      0.1565344630E+01

    ------------------------------------------------
       NWT REQUIRED            6 OUTER ITERATIONS 
       AND A TOTAL OF         14 INNER ITERATIONS.
    ------------------------------------------------

 NO OUTPUT CONTROL FOR STRESS PERIOD    2   TIME STEP   13
 ***WARNING***NUZTOP IS 3 AND ALL LAYERS  IN ROW           39  AND COLUMN           76  ARE INACTIVE.
 UNSATURATED FLOW WILL NOT BE ADDED TO ANY LAYER-- SOME WATER MAY FLOW PAST LOWEST LAYER
 ***WARNING***NUZTOP IS 3 AND ALL LAYERS  IN ROW           40  AND COLUMN           76  ARE INACTIVE.
 UNSATURATED FLOW WILL NOT BE ADDED TO ANY LAYER-- SOME WATER MAY FLOW PAST LOWEST LAYER
                                                   Max.-Head-Change                         Max.-Flux-Residual
  Residual-Control   Outer-Iter.   Inner-Iter.     Column Row Layer    Maximum-Head-Change  Column Row Layer    Maximum-Flux-Residual          L2-NORM 
          0                 1           3            21   52     1       0.1033707673E+01      55   35    1         0.3096094837E+03      0.4612236110E+03
          0                 2           2            24   33     1      -0.2252684448E-01      46   43    1         0.1296379627E+02      0.4915551555E+02
          0                 3           2            63   38     1      -0.6756340576E-02      63   38    1        -0.9557911793E+01      0.1954876553E+02
          0                 4           2            63   38     1      -0.7822796350E-02      63   38    1        -0.1105767259E+02      0.1621438212E+02
          0                 5           2            64   38     1      -0.3715637858E-02      64   38    1        -0.5263403789E+01      0.6826255551E+01
          0                 6           2            64   38     1      -0.1140772721E-02      64   38    1        -0.1621773187E+01      0.2049998008E+01
          0                 7           1            64   38     1      -0.2611821844E-03      64   38    1        -0.3722109458E+00      0.5800095910E+00

    ------------------------------------------------
       NWT REQUIRED            7 OUTER ITERATIONS 
       AND A TOTAL OF         14 INNER ITERATIONS.
    ------------------------------------------------

 NO OUTPUT CONTROL FOR STRESS PERIOD    2   TIME STEP   14
 ***WARNING***NUZTOP IS 3 AND ALL LAYERS  IN ROW           39  AND COLUMN           76  ARE INACTIVE.
 UNSATURATED FLOW WILL NOT BE ADDED TO ANY LAYER-- SOME WATER MAY FLOW PAST LOWEST LAYER
 ***WARNING***NUZTOP IS 3 AND ALL LAYERS  IN ROW           40  AND COLUMN           76  ARE INACTIVE.
 UNSATURATED FLOW WILL NOT BE ADDED TO ANY LAYER-- SOME WATER MAY FLOW PAST LOWEST LAYER
                                                   Max.-Head-Change                         Max.-Flux-Residual
  Residual-Control   Outer-Iter.   Inner-Iter.     Column Row Layer    Maximum-Head-Change  Column Row Layer    Maximum-Flux-Residual          L2-NORM 
          0                 1           4             9   52     1       0.3763082968E+00      55   35    1         0.2815589291E+03      0.4638629951E+03
          0                 2           3            61   52     1       0.1164016872E+01      55   35    1         0.4066337709E+02      0.8971530949E+02
          0                 3           3            67   25     1       0.1548820531E-01      64   38    1         0.1985128694E+02      0.4151784173E+02
          0                 4           3            63   38     1       0.1653361764E-01      63   38    1         0.2335971042E+02      0.3526886385E+02
          0                 5           2            64   38     1       0.7589936892E-02      64   38    1         0.1075171038E+02      0.1430558512E+02
          0                 6           2            64   38     1       0.2311920352E-02      64   38    1         0.3285445045E+01      0.4351212251E+01
          0                 7           1            64   38     1       0.5519830415E-03      64   38    1         0.7858805869E+00      0.1253964088E+01

    ------------------------------------------------
       NWT REQUIRED            7 OUTER ITERATIONS 
       AND A TOTAL OF         18 INNER ITERATIONS.
    ------------------------------------------------

 NO OUTPUT CONTROL FOR STRESS PERIOD    2   TIME STEP   15
 ***WARNING***NUZTOP IS 3 AND ALL LAYERS  IN ROW           39  AND COLUMN           76  ARE INACTIVE.
 UNSATURATED FLOW WILL NOT BE ADDED TO ANY LAYER-- SOME WATER MAY FLOW PAST LOWEST LAYER
 ***WARNING***NUZTOP IS 3 AND ALL LAYERS  IN ROW           40  AND COLUMN           76  ARE INACTIVE.
 UNSATURATED FLOW WILL NOT BE ADDED TO ANY LAYER-- SOME WATER MAY FLOW PAST LOWEST LAYER
                                                   Max.-Head-Change                         Max.-Flux-Residual
  Residual-Control   Outer-Iter.   Inner-Iter.     Column Row Layer    Maximum-Head-Change  Column Row Layer    Maximum-Flux-Residual          L2-NORM 
          0                 1           4            48   18     1       0.6137433428E+00      55   35    1         0.3116930046E+03      0.4977412209E+03
          0                 2           4             4   59     1       0.2874872941E+01      55   35    1        -0.3316092018E+03      0.3495827762E+03
          0                 3           3            63   38     1      -0.1532509219E-01      63   38    1        -0.2289483853E+02      0.3351192035E+02
          0                 4           2             3   59     1       0.3751975574E-02       3   59    1         0.2466495067E+01      0.7162522806E+01
          0                 5           2             3   59     1       0.1830142673E-02      63   38    1         0.2143191934E+01      0.3883280916E+01
          0                 6           1             3   59     1       0.8927265103E-03      64   38    1         0.1001357890E+01      0.1793879811E+01

    ------------------------------------------------
       NWT REQUIRED            6 OUTER ITERATIONS 
       AND A TOTAL OF         16 INNER ITERATIONS.
    ------------------------------------------------

 NO OUTPUT CONTROL FOR STRESS PERIOD    2   TIME STEP   16
 ***WARNING***NUZTOP IS 3 AND ALL LAYERS  IN ROW           39  AND COLUMN           76  ARE INACTIVE.
 UNSATURATED FLOW WILL NOT BE ADDED TO ANY LAYER-- SOME WATER MAY FLOW PAST LOWEST LAYER
 ***WARNING***NUZTOP IS 3 AND ALL LAYERS  IN ROW           40  AND COLUMN           76  ARE INACTIVE.
 UNSATURATED FLOW WILL NOT BE ADDED TO ANY LAYER-- SOME WATER MAY FLOW PAST LOWEST LAYER
                                                   Max.-Head-Change                         Max.-Flux-Residual
  Residual-Control   Outer-Iter.   Inner-Iter.     Column Row Layer    Maximum-Head-Change  Column Row Layer    Maximum-Flux-Residual          L2-NORM 
          0                 1           4             4   59     1       0.7148589295E+00      55   35    1         0.1656409162E+03      0.4284717965E+03
          0                 2           4            15   46     1       0.5115366224E+00      68   26    1         0.9306104413E+02      0.1378945423E+03
          0                 3           3            68   26     1       0.1717958293E-01      68   26    1         0.2167426998E+02      0.3651539098E+02
          0                 4           3            63   38     1       0.1448618908E-01      63   38    1         0.2046909265E+02      0.2955376427E+02
          0                 5           2            64   38     1       0.4196926863E-02      64   38    1         0.5978767022E+01      0.7142298443E+01
          0                 6           1             3   59     1       0.5603127629E-03      64   38    1         0.7279440665E+00      0.1480791589E+01

    ------------------------------------------------
       NWT REQUIRED            6 OUTER ITERATIONS 
       AND A TOTAL OF         17 INNER ITERATIONS.
    ------------------------------------------------

 NO OUTPUT CONTROL FOR STRESS PERIOD    2   TIME STEP   17
 ***WARNING***NUZTOP IS 3 AND ALL LAYERS  IN ROW           39  AND COLUMN           76  ARE INACTIVE.
 UNSATURATED FLOW WILL NOT BE ADDED TO ANY LAYER-- SOME WATER MAY FLOW PAST LOWEST LAYER
 ***WARNING***NUZTOP IS 3 AND ALL LAYERS  IN ROW           40  AND COLUMN           76  ARE INACTIVE.
 UNSATURATED FLOW WILL NOT BE ADDED TO ANY LAYER-- SOME WATER MAY FLOW PAST LOWEST LAYER
                                                   Max.-Head-Change                         Max.-Flux-Residual
  Residual-Control   Outer-Iter.   Inner-Iter.     Column Row Layer    Maximum-Head-Change  Column Row Layer    Maximum-Flux-Residual          L2-NORM 
          0                 1           5            48   24     1       0.1399867499E+01      68   26    1         0.1174791251E+03      0.4120669593E+03
          0                 2           4            51   58     1       0.1149381072E+01      68   26    1         0.4850358450E+02      0.9253310920E+02
          0                 3           3            64   38     1       0.1366441028E-01      64   38    1         0.1924644175E+02      0.3434214930E+02
          0                 4           3            63   38     1       0.1769166726E-01      63   38    1         0.2500309551E+02      0.3547954899E+02
          0                 5           2            64   38     1       0.8157101122E-02      64   38    1         0.1155045502E+02      0.1464218243E+02
          0                 6           2            64   38     1       0.2496173878E-02      64   38    1         0.3546016278E+01      0.4248130239E+01
          0                 7           1            64   38     1       0.5918372065E-03      64   38    1         0.8423741550E+00      0.1074521782E+01

    ------------------------------------------------
       NWT REQUIRED            7 OUTER ITERATIONS 
       AND A TOTAL OF         20 INNER ITERATIONS.
    ------------------------------------------------

 NO OUTPUT CONTROL FOR STRESS PERIOD    2   TIME STEP   18
 ***WARNING***NUZTOP IS 3 AND ALL LAYERS  IN ROW           39  AND COLUMN           76  ARE INACTIVE.
 UNSATURATED FLOW WILL NOT BE ADDED TO ANY LAYER-- SOME WATER MAY FLOW PAST LOWEST LAYER
 ***WARNING***NUZTOP IS 3 AND ALL LAYERS  IN ROW           40  AND COLUMN           76  ARE INACTIVE.
 UNSATURATED FLOW WILL NOT BE ADDED TO ANY LAYER-- SOME WATER MAY FLOW PAST LOWEST LAYER
                                                   Max.-Head-Change                         Max.-Flux-Residual
  Residual-Control   Outer-Iter.   Inner-Iter.     Column Row Layer    Maximum-Head-Change  Column Row Layer    Maximum-Flux-Residual          L2-NORM 
          0                 1           4            68   67     1       0.1387956321E+01      68   26    1         0.1685716036E+03      0.4808939216E+03
          0                 2           4            51   56     1       0.3472634736E+01      63   38    1         0.5717458351E+02      0.1162831942E+03
          0                 3           3            51   56     1      -0.6942933178E-01      64   38    1         0.3764014870E+02      0.6116431782E+02
          0                 4           3            64   38     1       0.2339168357E-01      64   38    1         0.3296281668E+02      0.4857461873E+02
          0                 5           2            64   38     1       0.1071469500E-01      64   38    1         0.1517305641E+02      0.1952685089E+02
          0                 6           2            64   38     1       0.3228391417E-02      64   38    1         0.4585611094E+01      0.5656025608E+01
          0                 7           1            64   38     1       0.7565627388E-03      64   38    1         0.1076692450E+01      0.1444576089E+01

    ------------------------------------------------
       NWT REQUIRED            7 OUTER ITERATIONS 
       AND A TOTAL OF         19 INNER ITERATIONS.
    ------------------------------------------------

 NO OUTPUT CONTROL FOR STRESS PERIOD    2   TIME STEP   19
 ***WARNING***NUZTOP IS 3 AND ALL LAYERS  IN ROW           39  AND COLUMN           76  ARE INACTIVE.
 UNSATURATED FLOW WILL NOT BE ADDED TO ANY LAYER-- SOME WATER MAY FLOW PAST LOWEST LAYER
 ***WARNING***NUZTOP IS 3 AND ALL LAYERS  IN ROW           40  AND COLUMN           76  ARE INACTIVE.
 UNSATURATED FLOW WILL NOT BE ADDED TO ANY LAYER-- SOME WATER MAY FLOW PAST LOWEST LAYER
                                                   Max.-Head-Change                         Max.-Flux-Residual
  Residual-Control   Outer-Iter.   Inner-Iter.     Column Row Layer    Maximum-Head-Change  Column Row Layer    Maximum-Flux-Residual          L2-NORM 
          0                 1           4            25   33     1       0.2475201626E+01      68   26    1         0.2313368546E+03      0.5132750664E+03
          0                 2           4            31   60     1       0.1081934097E+01      31   60    1         0.2104398418E+02      0.6911410429E+02
          0                 3           2            64   38     1       0.6834642351E-02      64   38    1         0.9619555721E+01      0.2403532189E+02
          0                 4           2            63   38     1       0.9394838323E-02      63   38    1         0.1327702339E+02      0.1975157272E+02
          0                 5           2            64   38     1       0.4242063195E-02      64   38    1         0.6005888770E+01      0.8018874588E+01
          0                 6           2            64   38     1       0.1271918323E-02      64   38    1         0.1806545151E+01      0.2412571793E+01
          0                 7           1            64   38     1       0.2980959625E-03      64   38    1         0.4241406262E+00      0.7198449001E+00

    ------------------------------------------------
       NWT REQUIRED            7 OUTER ITERATIONS 
       AND A TOTAL OF         17 INNER ITERATIONS.
    ------------------------------------------------

 NO OUTPUT CONTROL FOR STRESS PERIOD    2   TIME STEP   20
 ***WARNING***NUZTOP IS 3 AND ALL LAYERS  IN ROW           39  AND COLUMN           76  ARE INACTIVE.
 UNSATURATED FLOW WILL NOT BE ADDED TO ANY LAYER-- SOME WATER MAY FLOW PAST LOWEST LAYER
 ***WARNING***NUZTOP IS 3 AND ALL LAYERS  IN ROW           40  AND COLUMN           76  ARE INACTIVE.
 UNSATURATED FLOW WILL NOT BE ADDED TO ANY LAYER-- SOME WATER MAY FLOW PAST LOWEST LAYER
                                                   Max.-Head-Change                         Max.-Flux-Residual
  Residual-Control   Outer-Iter.   Inner-Iter.     Column Row Layer    Maximum-Head-Change  Column Row Layer    Maximum-Flux-Residual          L2-NORM 
          0                 1           4            68   48     1       0.1042159210E+01      68   26    1         0.2311347910E+03      0.4419667806E+03
          0                 2           3            30   55     1       0.1123232091E+01      63   38    1        -0.7092695946E+02      0.1194321195E+03
          0                 3           3            64   38     1      -0.3709259644E-01      64   38    1        -0.5232546796E+02      0.8222640162E+02
          0                 4           3            63   38     1      -0.3517270709E-01      63   38    1        -0.4967184375E+02      0.7257119211E+02
          0                 5           3            64   38     1      -0.1567163123E-01      64   38    1        -0.2220571253E+02      0.2800721441E+02
          0                 6           2            64   38     1      -0.4504334147E-02      64   38    1        -0.6402824231E+01      0.7721686312E+01
          0                 7           1            64   38     1      -0.9956499287E-03      64   38    1        -0.1418134020E+01      0.1883489772E+01

    ------------------------------------------------
       NWT REQUIRED            7 OUTER ITERATIONS 
       AND A TOTAL OF         19 INNER ITERATIONS.
    ------------------------------------------------

 NO OUTPUT CONTROL FOR STRESS PERIOD    2   TIME STEP   21
 ***WARNING***NUZTOP IS 3 AND ALL LAYERS  IN ROW           39  AND COLUMN           76  ARE INACTIVE.
 UNSATURATED FLOW WILL NOT BE ADDED TO ANY LAYER-- SOME WATER MAY FLOW PAST LOWEST LAYER
 ***WARNING***NUZTOP IS 3 AND ALL LAYERS  IN ROW           40  AND COLUMN           76  ARE INACTIVE.
 UNSATURATED FLOW WILL NOT BE ADDED TO ANY LAYER-- SOME WATER MAY FLOW PAST LOWEST LAYER
                                                   Max.-Head-Change                         Max.-Flux-Residual
  Residual-Control   Outer-Iter.   Inner-Iter.     Column Row Layer    Maximum-Head-Change  Column Row Layer    Maximum-Flux-Residual          L2-NORM 
          0                 1           4             4   57     1       0.1723786674E+01      68   26    1         0.1599590761E+03      0.3670231330E+03
          0                 2           3            69   18     1       0.1022466211E+01      69   18    1         0.2739597188E+02      0.7215408529E+02
          0                 3           2            63   38     1       0.6849640906E-02      63   38    1         0.9658793738E+01      0.2336704714E+02
          0                 4           2            63   38     1       0.1023991595E-01      63   38    1         0.1447450575E+02      0.2109883502E+02
          0                 5           2            64   38     1       0.4723321103E-02      64   38    1         0.6684898002E+01      0.8804888396E+01
          0                 6           2            64   38     1       0.1470112943E-02      64   38    1         0.2086735517E+01      0.2693641622E+01
          0                 7           1            64   38     1       0.3580824282E-03      64   38    1         0.5090688065E+00      0.7836400535E+00

    ------------------------------------------------
       NWT REQUIRED            7 OUTER ITERATIONS 
       AND A TOTAL OF         16 INNER ITERATIONS.
    ------------------------------------------------

 NO OUTPUT CONTROL FOR STRESS PERIOD    2   TIME STEP   22
 ***WARNING***NUZTOP IS 3 AND ALL LAYERS  IN ROW           39  AND COLUMN           76  ARE INACTIVE.
 UNSATURATED FLOW WILL NOT BE ADDED TO ANY LAYER-- SOME WATER MAY FLOW PAST LOWEST LAYER
 ***WARNING***NUZTOP IS 3 AND ALL LAYERS  IN ROW           40  AND COLUMN           76  ARE INACTIVE.
 UNSATURATED FLOW WILL NOT BE ADDED TO ANY LAYER-- SOME WATER MAY FLOW PAST LOWEST LAYER
                                                   Max.-Head-Change                         Max.-Flux-Residual
  Residual-Control   Outer-Iter.   Inner-Iter.     Column Row Layer    Maximum-Head-Change  Column Row Layer    Maximum-Flux-Residual          L2-NORM 
          0                 1           4            70   19     1       0.8022624232E+00      68   26    1         0.1624137131E+03      0.3424938911E+03
          0                 2           4            52   57     1       0.2856125588E+01      68   26    1        -0.1926049178E+03      0.2030350684E+03
          0                 3           3            68   26     1       0.3646172376E-01      68   26    1         0.1140203885E+03      0.1169657114E+03
          0                 4           3            63   38     1      -0.1413797126E-01      63   38    1        -0.1999310476E+02      0.2996253144E+02
          0                 5           2            64   38     1      -0.6533316384E-02      64   38    1        -0.9248717872E+01      0.1185280158E+02
          0                 6           2            64   38     1      -0.1967207098E-02      64   38    1        -0.2794260170E+01      0.3383949833E+01
          0                 7           1            64   38     1      -0.4427170393E-03      64   38    1        -0.6300929743E+00      0.8634860125E+00

    ------------------------------------------------
       NWT REQUIRED            7 OUTER ITERATIONS 
       AND A TOTAL OF         19 INNER ITERATIONS.
    ------------------------------------------------

 NO OUTPUT CONTROL FOR STRESS PERIOD    2   TIME STEP   23
 ***WARNING***NUZTOP IS 3 AND ALL LAYERS  IN ROW           39  AND COLUMN           76  ARE INACTIVE.
 UNSATURATED FLOW WILL NOT BE ADDED TO ANY LAYER-- SOME WATER MAY FLOW PAST LOWEST LAYER
 ***WARNING***NUZTOP IS 3 AND ALL LAYERS  IN ROW           40  AND COLUMN           76  ARE INACTIVE.
 UNSATURATED FLOW WILL NOT BE ADDED TO ANY LAYER-- SOME WATER MAY FLOW PAST LOWEST LAYER
                                                   Max.-Head-Change                         Max.-Flux-Residual
  Residual-Control   Outer-Iter.   Inner-Iter.     Column Row Layer    Maximum-Head-Change  Column Row Layer    Maximum-Flux-Residual          L2-NORM 
          0                 1           4             4   58     1      -0.5035099969E+00      68   26    1         0.6878136521E+02      0.2744187430E+03
          0                 2           4            61   47     1       0.6342572333E+00      68   27    1         0.3110283967E+02      0.6760348293E+02
          0                 3           3            64   38     1      -0.1117602556E-01      64   38    1        -0.1576448241E+02      0.2949948026E+02
          0                 4           3            63   38     1      -0.1417423859E-01      63   38    1        -0.2003844321E+02      0.2866779852E+02
          0                 5           2            64   38     1      -0.6597855440E-02      64   38    1        -0.9344213757E+01      0.1186169926E+02
          0                 6           2            64   38     1      -0.1999520559E-02      64   38    1        -0.2841819853E+01      0.3403134186E+01
          0                 7           1            64   38     1      -0.4565126169E-03      64   38    1        -0.6502356555E+00      0.8783693568E+00

    ------------------------------------------------
       NWT REQUIRED            7 OUTER ITERATIONS 
       AND A TOTAL OF         19 INNER ITERATIONS.
    ------------------------------------------------

 NO OUTPUT CONTROL FOR STRESS PERIOD    2   TIME STEP   24
 ***WARNING***NUZTOP IS 3 AND ALL LAYERS  IN ROW           39  AND COLUMN           76  ARE INACTIVE.
 UNSATURATED FLOW WILL NOT BE ADDED TO ANY LAYER-- SOME WATER MAY FLOW PAST LOWEST LAYER
 ***WARNING***NUZTOP IS 3 AND ALL LAYERS  IN ROW           40  AND COLUMN           76  ARE INACTIVE.
 UNSATURATED FLOW WILL NOT BE ADDED TO ANY LAYER-- SOME WATER MAY FLOW PAST LOWEST LAYER
                                                   Max.-Head-Change                         Max.-Flux-Residual
  Residual-Control   Outer-Iter.   Inner-Iter.     Column Row Layer    Maximum-Head-Change  Column Row Layer    Maximum-Flux-Residual          L2-NORM 
          0                 1           4            68   68     1       0.2020243960E+01      68   27    1         0.1020939790E+03      0.2584967304E+03
          0                 2           4            71   64     1       0.1302889707E+01      68   27    1         0.3585601333E+02      0.6270951632E+02
          0                 3           2            68   27     1       0.9662430560E-02      68   27    1         0.1209007112E+02      0.1947091150E+02
          0                 4           2            68   27     1       0.3257869336E-02      68   27    1         0.4076298512E+01      0.7043728945E+01
          0                 5           2            68   27     1       0.1098617071E-02      68   27    1         0.1374555206E+01      0.2691520000E+01
          0                 6           1             5   60     1       0.4768645272E-03      68   27    1         0.4635518197E+00      0.1081157503E+01

    ------------------------------------------------
       NWT REQUIRED            6 OUTER ITERATIONS 
       AND A TOTAL OF         15 INNER ITERATIONS.
    ------------------------------------------------

 NO OUTPUT CONTROL FOR STRESS PERIOD    2   TIME STEP   25
 ***WARNING***NUZTOP IS 3 AND ALL LAYERS  IN ROW           39  AND COLUMN           76  ARE INACTIVE.
 UNSATURATED FLOW WILL NOT BE ADDED TO ANY LAYER-- SOME WATER MAY FLOW PAST LOWEST LAYER
 ***WARNING***NUZTOP IS 3 AND ALL LAYERS  IN ROW           40  AND COLUMN           76  ARE INACTIVE.
 UNSATURATED FLOW WILL NOT BE ADDED TO ANY LAYER-- SOME WATER MAY FLOW PAST LOWEST LAYER
                                                   Max.-Head-Change                         Max.-Flux-Residual
  Residual-Control   Outer-Iter.   Inner-Iter.     Column Row Layer    Maximum-Head-Change  Column Row Layer    Maximum-Flux-Residual          L2-NORM 
          0                 1           4            68   68     2       0.8183662813E+00      68   27    1         0.9989638687E+02      0.2700329901E+03
          0                 2           3            12   42     1       0.4032760766E+00      68   27    1         0.3371558375E+02      0.6498598411E+02
          0                 3           2            64   38     1       0.9765913398E-02      64   38    1         0.1376660393E+02      0.2755487927E+02
          0                 4           2            63   38     1       0.9267284467E-02      63   38    1         0.1308349690E+02      0.1996086480E+02
          0                 5           2            64   38     1       0.4082811645E-02      64   38    1         0.5785827681E+01      0.7570733914E+01
          0                 6           2            64   38     1       0.1185305772E-02      64   38    1         0.1684561918E+01      0.2225186902E+01
          0                 7           1            64   38     1       0.2749899131E-03      64   38    1         0.3914405749E+00      0.6556874030E+00

    ------------------------------------------------
       NWT REQUIRED            7 OUTER ITERATIONS 
       AND A TOTAL OF         16 INNER ITERATIONS.
    ------------------------------------------------

 NO OUTPUT CONTROL FOR STRESS PERIOD    2   TIME STEP   26
 ***WARNING***NUZTOP IS 3 AND ALL LAYERS  IN ROW           39  AND COLUMN           76  ARE INACTIVE.
 UNSATURATED FLOW WILL NOT BE ADDED TO ANY LAYER-- SOME WATER MAY FLOW PAST LOWEST LAYER
 ***WARNING***NUZTOP IS 3 AND ALL LAYERS  IN ROW           40  AND COLUMN           76  ARE INACTIVE.
 UNSATURATED FLOW WILL NOT BE ADDED TO ANY LAYER-- SOME WATER MAY FLOW PAST LOWEST LAYER
                                                   Max.-Head-Change                         Max.-Flux-Residual
  Residual-Control   Outer-Iter.   Inner-Iter.     Column Row Layer    Maximum-Head-Change  Column Row Layer    Maximum-Flux-Residual          L2-NORM 
          0                 1           4            68   68     2       0.5712673393E+00      68   27    1         0.9481228455E+02      0.2892071395E+03
          0                 2           4             5   58     1       0.1175617303E+01      68   27    1         0.2995901161E+02      0.6786379261E+02
          0                 3           2            64   38     1       0.8173616256E-02      64   38    1         0.1151373981E+02      0.2563752246E+02
          0                 4           2            63   38     1       0.9881638974E-02      63   38    1         0.1396243962E+02      0.2077107067E+02
          0                 5           2            64   38     1       0.4395308405E-02      64   38    1         0.6226389405E+01      0.8177571765E+01
          0                 6           2            64   38     1       0.1302521457E-02      64   38    1         0.1850791689E+01      0.2440066536E+01
          0                 7           1             5   57     1       0.3604762828E-03      64   38    1         0.4334188868E+00      0.7285535756E+00

    ------------------------------------------------
       NWT REQUIRED            7 OUTER ITERATIONS 
       AND A TOTAL OF         17 INNER ITERATIONS.
    ------------------------------------------------

 NO OUTPUT CONTROL FOR STRESS PERIOD    2   TIME STEP   27
 ***WARNING***NUZTOP IS 3 AND ALL LAYERS  IN ROW           39  AND COLUMN           76  ARE INACTIVE.
 UNSATURATED FLOW WILL NOT BE ADDED TO ANY LAYER-- SOME WATER MAY FLOW PAST LOWEST LAYER
 ***WARNING***NUZTOP IS 3 AND ALL LAYERS  IN ROW           40  AND COLUMN           76  ARE INACTIVE.
 UNSATURATED FLOW WILL NOT BE ADDED TO ANY LAYER-- SOME WATER MAY FLOW PAST LOWEST LAYER
                                                   Max.-Head-Change                         Max.-Flux-Residual
  Residual-Control   Outer-Iter.   Inner-Iter.     Column Row Layer    Maximum-Head-Change  Column Row Layer    Maximum-Flux-Residual          L2-NORM 
          0                 1           4             5   58     1       0.1260707537E+01      68   27    1         0.9027515847E+02      0.3022010038E+03
          0                 2           4            24   32     1       0.9754629024E+00      68   27    1         0.2852675926E+02      0.6121178370E+02
          0                 3           2            68   27     1       0.7205348434E-02      68   27    1         0.9010177394E+01      0.2133652195E+02
          0                 4           2            63   38     1       0.8424975658E-02      63   38    1         0.1191865979E+02      0.1765198825E+02
          0                 5           2            64   38     1       0.3824356285E-02      64   38    1         0.5414527202E+01      0.7354266643E+01
          0                 6           2            64   38     1       0.1186258638E-02      64   38    1         0.1684897261E+01      0.2311048118E+01
          0                 7           1             5   57     1       0.3781685564E-03      64   38    1         0.4084593836E+00      0.7289428173E+00

    ------------------------------------------------
       NWT REQUIRED            7 OUTER ITERATIONS 
       AND A TOTAL OF         17 INNER ITERATIONS.
    ------------------------------------------------

 NO OUTPUT CONTROL FOR STRESS PERIOD    2   TIME STEP   28
 ***WARNING***NUZTOP IS 3 AND ALL LAYERS  IN ROW           39  AND COLUMN           76  ARE INACTIVE.
 UNSATURATED FLOW WILL NOT BE ADDED TO ANY LAYER-- SOME WATER MAY FLOW PAST LOWEST LAYER
 ***WARNING***NUZTOP IS 3 AND ALL LAYERS  IN ROW           40  AND COLUMN           76  ARE INACTIVE.
 UNSATURATED FLOW WILL NOT BE ADDED TO ANY LAYER-- SOME WATER MAY FLOW PAST LOWEST LAYER
                                                   Max.-Head-Change                         Max.-Flux-Residual
  Residual-Control   Outer-Iter.   Inner-Iter.     Column Row Layer    Maximum-Head-Change  Column Row Layer    Maximum-Flux-Residual          L2-NORM 
          0                 1           4            24   32     1       0.7220852013E+00      68   27    1         0.8666955694E+02      0.3319585554E+03
          0                 2           3             6   54     1       0.9516690130E+00      68   27    1         0.2623099053E+02      0.6742733138E+02
          0                 3           2            63   38     1       0.8565456376E-02      63   38    1         0.1208925278E+02      0.2705075509E+02
          0                 4           3            63   38     1       0.1198886834E-01      63   38    1         0.1694744483E+02      0.2463723708E+02
          0                 5           2            64   38     1       0.5313981180E-02      64   38    1         0.7526481044E+01      0.9806841661E+01
          0                 6           2            64   38     1       0.1568428763E-02      64   38    1         0.2228590916E+01      0.2881491414E+01
          0                 7           1             5   57     1       0.3888553192E-03      64   38    1         0.5144721775E+00      0.8351122706E+00

    ------------------------------------------------
       NWT REQUIRED            7 OUTER ITERATIONS 
       AND A TOTAL OF         17 INNER ITERATIONS.
    ------------------------------------------------

 NO OUTPUT CONTROL FOR STRESS PERIOD    2   TIME STEP   29
 ***WARNING***NUZTOP IS 3 AND ALL LAYERS  IN ROW           39  AND COLUMN           76  ARE INACTIVE.
 UNSATURATED FLOW WILL NOT BE ADDED TO ANY LAYER-- SOME WATER MAY FLOW PAST LOWEST LAYER
 ***WARNING***NUZTOP IS 3 AND ALL LAYERS  IN ROW           40  AND COLUMN           76  ARE INACTIVE.
 UNSATURATED FLOW WILL NOT BE ADDED TO ANY LAYER-- SOME WATER MAY FLOW PAST LOWEST LAYER
                                                   Max.-Head-Change                         Max.-Flux-Residual
  Residual-Control   Outer-Iter.   Inner-Iter.     Column Row Layer    Maximum-Head-Change  Column Row Layer    Maximum-Flux-Residual          L2-NORM 
          0                 1           4            68   68     2       0.2987343275E+00      69   28    1         0.8216300300E+02      0.3501288605E+03
          0                 2           3            65   24     1       0.4994823181E+00      68   27    1         0.2436084149E+02      0.6874915118E+02
          0                 3           2             5   57     1       0.7336253898E-02      66   24    1         0.8425988897E+01      0.2509709647E+02
          0                 4           2            63   38     1       0.5963301520E-02      63   38    1         0.8421173623E+01      0.1440129624E+02
          0                 5           2            64   38     1       0.2609408319E-02      64   38    1         0.3696540415E+01      0.5567278330E+01
          0                 6           1             5   57     1       0.8127830793E-03      64   38    1         0.1080945879E+01      0.1848593411E+01

    ------------------------------------------------
       NWT REQUIRED            6 OUTER ITERATIONS 
       AND A TOTAL OF         14 INNER ITERATIONS.
    ------------------------------------------------

 NO OUTPUT CONTROL FOR STRESS PERIOD    2   TIME STEP   30
 ***WARNING***NUZTOP IS 3 AND ALL LAYERS  IN ROW           39  AND COLUMN           76  ARE INACTIVE.
 UNSATURATED FLOW WILL NOT BE ADDED TO ANY LAYER-- SOME WATER MAY FLOW PAST LOWEST LAYER
 ***WARNING***NUZTOP IS 3 AND ALL LAYERS  IN ROW           40  AND COLUMN           76  ARE INACTIVE.
 UNSATURATED FLOW WILL NOT BE ADDED TO ANY LAYER-- SOME WATER MAY FLOW PAST LOWEST LAYER
                                                   Max.-Head-Change                         Max.-Flux-Residual
  Residual-Control   Outer-Iter.   Inner-Iter.     Column Row Layer    Maximum-Head-Change  Column Row Layer    Maximum-Flux-Residual          L2-NORM 
          0                 1           4            53   60     1       0.1081137991E+01      69   28    1         0.8771096336E+02      0.4009447941E+03
          0                 2           3            69   49     1       0.1692212181E+01      63   38    1         0.4431950428E+02      0.1034755174E+03
          0                 3           3            64   38     1       0.2204874453E-01      64   38    1         0.3109305501E+02      0.5190949782E+02
          0                 4           3            64   38     1       0.1606537175E-01      64   38    1         0.2266298649E+02      0.3381875233E+02
          0                 5           2            64   38     1       0.6347229383E-02      64   38    1         0.8998286450E+01      0.1221782670E+02
          0                 6           2            64   38     1       0.1699417581E-02      64   38    1         0.2415964918E+01      0.3576801614E+01
          0                 7           1            69   29     1       0.5270026945E-03      69   29    1         0.6814535487E+00      0.1106128314E+01

    ------------------------------------------------
       NWT REQUIRED            7 OUTER ITERATIONS 
       AND A TOTAL OF         18 INNER ITERATIONS.
    ------------------------------------------------

 NO OUTPUT CONTROL FOR STRESS PERIOD    2   TIME STEP   31



 STREAM LISTING     PERIOD      2   STEP       31

 LAYER ROW COL. STREAM  RCH.   FLOW INTO    STREAM     FLOW OUT OF   OVRLND.    DIRECT     STREAM      STREAM      STREAM     STREAM  STREAMBED   FLOW TO   CHNG. UNSAT. 
                SEG.NO.  NO.   STRM. RCH.    LOSS       STRM. RCH.   RUNOFF     PRECIP       ET         HEAD        DEPTH      WIDTH  CONDCTNC.   WAT. TAB.

   1   18   62     1     1    0.0000E+00  8.7022E-01   0.0000E+00  8.702E-01  0.000E+00  0.000E+00  2.07300E+03  2.398E-05  3.000E+00  1.909E+03  0.000E+00  0.000E+00
   1   19   63     1     2    0.0000E+00 -4.6158E+01   4.7029E+01  8.702E-01  0.000E+00  0.000E+00  2.06300E+03  1.187E-03  3.000E+00  1.909E+03  0.000E+00  0.000E+00
   1   20   64     1     3    4.7029E+01 -7.4072E+01   1.2197E+02  8.702E-01  0.000E+00  0.000E+00  2.05400E+03  2.796E-03  3.000E+00  1.630E+03  0.000E+00  0.000E+00
   1   21   64     1     4    1.2197E+02 -7.6124E+01   1.9896E+02  8.702E-01  0.000E+00  0.000E+00  2.05101E+03  5.058E-03  3.000E+00  1.630E+03  0.000E+00  0.000E+00
   1   22   65     1     5    1.9896E+02 -8.1369E+00   2.0797E+02  8.702E-01  0.000E+00  0.000E+00  2.04800E+03  4.968E-03  3.000E+00  9.546E+02  0.000E+00  0.000E+00
   1   20   66     2     1    0.0000E+00  0.0000E+00   0.0000E+00  0.000E+00  0.000E+00  0.000E+00  2.05300E+03  0.000E+00  3.000E+00  1.909E+03  0.000E+00  0.000E+00
   1   21   65     2     2    0.0000E+00  0.0000E+00   0.0000E+00  0.000E+00  0.000E+00  0.000E+00  2.05100E+03  0.000E+00  3.000E+00  1.630E+03  0.000E+00  0.000E+00
   1   22   65     2     3    0.0000E+00 -8.8007E+00   8.8007E+00  0.000E+00  0.000E+00  0.000E+00  2.04800E+03  4.540E-04  3.000E+00  6.750E+02  0.000E+00  0.000E+00
   1   22   65     3     1    2.1677E+02 -5.9418E+00   2.2271E+02  0.000E+00  0.000E+00  0.000E+00  2.04800E+03  4.689E-03  3.000E+00  6.750E+02  0.000E+00  0.000E+00
   1   23   65     3     2    2.2271E+02 -8.0838E+01   3.0355E+02  0.000E+00  0.000E+00  0.000E+00  2.04501E+03  8.378E-03  3.000E+00  1.630E+03  0.000E+00  0.000E+00
   1   24   66     3     3    3.0355E+02 -1.2641E+01   3.1619E+02  0.000E+00  0.000E+00  0.000E+00  2.04532E+03  3.219E-01  3.000E+00  1.909E+03  0.000E+00  0.000E+00
   1   25   67     3     4    3.1619E+02  2.6095E+01   2.9010E+02  0.000E+00  0.000E+00  0.000E+00  2.04501E+03  9.560E-03  3.000E+00  1.909E+03  0.000E+00  0.000E+00
   1   26   68     3     5    2.9010E+02  2.3849E+01   2.6625E+02  0.000E+00  0.000E+00  0.000E+00  2.04201E+03  7.942E-03  3.000E+00  1.630E+03  0.000E+00  0.000E+00
   1   27   68     3     6    2.6625E+02  9.7776E+01   1.6847E+02  0.000E+00  0.000E+00  0.000E+00  2.04101E+03  6.064E-03  3.000E+00  1.630E+03  1.021E+02 -4.355E+00
   1   28   69     3     7    1.6847E+02  9.7776E+01   7.0698E+01  0.000E+00  0.000E+00  0.000E+00  2.03600E+03  3.439E-03  3.000E+00  1.630E+03  1.024E+02 -4.579E+00
   1   29   69     3     8    7.0698E+01  7.0698E+01   0.0000E+00  0.000E+00  0.000E+00  0.000E+00  2.02900E+03  5.203E-04  3.000E+00  1.350E+03  3.096E+01  3.974E+01
   1   30   69     3     9    0.0000E+00  0.0000E+00   0.0000E+00  0.000E+00  0.000E+00  0.000E+00  2.02300E+03  0.000E+00  3.000E+00  1.630E+03  0.000E+00  0.000E+00
   1   31   70     3    10    0.0000E+00 -9.5471E+01   9.5471E+01  0.000E+00  0.000E+00  0.000E+00  2.01100E+03  1.758E-03  3.000E+00  1.630E+03  0.000E+00  0.000E+00
   1   32   70     3    11    9.5471E+01 -2.1282E+02   3.0829E+02  0.000E+00  0.000E+00  0.000E+00  2.00501E+03  5.032E-03  3.000E+00  1.350E+03  0.000E+00  0.000E+00
   1   33   70     3    12    3.0829E+02  1.2845E+01   2.9545E+02  0.000E+00  0.000E+00  0.000E+00  2.00301E+03  5.230E-03  3.000E+00  1.630E+03  0.000E+00  0.000E+00
   1   34   69     3    13    2.9545E+02 -3.4366E+01   3.2981E+02  0.000E+00  0.000E+00  0.000E+00  1.98600E+03  4.657E-03  3.000E+00  1.630E+03  0.000E+00  0.000E+00
   1   35   69     3    14    3.2981E+02 -4.7577E+01   3.7739E+02  0.000E+00  0.000E+00  0.000E+00  1.97301E+03  5.435E-03  3.000E+00  1.350E+03  0.000E+00  0.000E+00
   1   36   69     3    15    3.7739E+02  2.4805E-01   3.7714E+02  0.000E+00  0.000E+00  0.000E+00  1.96701E+03  6.191E-03  3.000E+00  1.350E+03  0.000E+00  0.000E+00
   1   37   69     3    16    3.7714E+02  1.2026E+01   3.6511E+02  0.000E+00  0.000E+00  0.000E+00  1.95901E+03  6.131E-03  3.000E+00  1.350E+03  0.000E+00  0.000E+00
   1   38   69     3    17    3.6511E+02  1.9694E+01   3.4542E+02  0.000E+00  0.000E+00  0.000E+00  1.95301E+03  6.462E-03  3.000E+00  1.630E+03  0.000E+00  0.000E+00
   1   39   70     3    18    3.4542E+02 -8.1542E+00   3.5357E+02  0.000E+00  0.000E+00  0.000E+00  1.94601E+03  5.730E-03  3.000E+00  9.546E+02  0.000E+00  0.000E+00
   1   25   49     4     1    0.0000E+00 -1.4103E+02   1.4103E+02  0.000E+00  0.000E+00  0.000E+00  2.03500E+03  2.224E-03  3.000E+00  1.909E+03  0.000E+00  0.000E+00
   1   26   50     4     2    1.4103E+02 -9.7460E+01   2.3849E+02  0.000E+00  0.000E+00  0.000E+00  2.02600E+03  4.370E-03  3.000E+00  1.909E+03  0.000E+00  0.000E+00
   1   27   51     4     3    2.3849E+02 -8.2102E+01   3.2059E+02  0.000E+00  0.000E+00  0.000E+00  2.01901E+03  5.732E-03  3.000E+00  1.630E+03  0.000E+00  0.000E+00
   1   28   51     4     4    3.2059E+02 -9.9758E+01   4.2035E+02  0.000E+00  0.000E+00  0.000E+00  2.01401E+03  7.168E-03  3.000E+00  1.630E+03  0.000E+00  0.000E+00
   1   29   52     4     5    4.2035E+02 -5.9904E+01   4.8025E+02  0.000E+00  0.000E+00  0.000E+00  2.00901E+03  8.059E-03  3.000E+00  1.630E+03  0.000E+00  0.000E+00
   1   30   52     4     6    4.8025E+02 -2.7382E+01   5.0764E+02  0.000E+00  0.000E+00  0.000E+00  2.00401E+03  8.051E-03  3.000E+00  1.350E+03  0.000E+00  0.000E+00
   1   31   52     4     7    5.0764E+02 -3.4964E+01   5.4260E+02  0.000E+00  0.000E+00  0.000E+00  1.99901E+03  9.295E-03  3.000E+00  1.350E+03  0.000E+00  0.000E+00
   1   32   52     4     8    5.4260E+02 -1.0538E+01   5.5314E+02  0.000E+00  0.000E+00  0.000E+00  1.99701E+03  9.693E-03  3.000E+00  1.630E+03  0.000E+00  0.000E+00
   1   33   53     4     9    5.5314E+02  4.9176E-01   5.5265E+02  0.000E+00  0.000E+00  0.000E+00  1.99101E+03  9.558E-03  3.000E+00  1.909E+03  0.000E+00  0.000E+00
   1   34   54     4    10    5.5265E+02  4.0613E+01   5.1203E+02  0.000E+00  0.000E+00  0.000E+00  1.98701E+03  9.644E-03  3.000E+00  1.909E+03  0.000E+00  0.000E+00
   1   35   55     4    11    5.1203E+02  5.5352E+01   4.5668E+02  0.000E+00  0.000E+00  0.000E+00  1.98201E+03  8.182E-03  3.000E+00  1.630E+03  0.000E+00  0.000E+00
   1   36   55     4    12    4.5668E+02 -6.0220E+01   5.1690E+02  0.000E+00  0.000E+00  0.000E+00  1.97601E+03  7.215E-03  3.000E+00  6.750E+02  0.000E+00  0.000E+00
   1   35   37     5     1    4.9356E+03 -6.7326E+01   5.0029E+03  0.000E+00  0.000E+00  0.000E+00  2.05403E+03  2.518E-02  3.000E+00  9.546E+02  0.000E+00  0.000E+00
   1   34   38     5     2    5.0029E+03 -1.4060E+02   5.1435E+03  0.000E+00  0.000E+00  0.000E+00  2.04603E+03  3.139E-02  3.000E+00  1.909E+03  0.000E+00  0.000E+00
   1   33   39     5     3    5.1435E+03 -2.5538E+02   5.3989E+03  0.000E+00  0.000E+00  0.000E+00  2.03804E+03  3.816E-02  3.000E+00  1.909E+03  0.000E+00  0.000E+00
   1   32   40     5     4    5.3989E+03  1.0573E+02   5.2931E+03  0.000E+00  0.000E+00  0.000E+00  2.03704E+03  3.802E-02  3.000E+00  1.630E+03  0.000E+00  0.000E+00
   1   32   41     5     5    5.2931E+03 -1.4122E+02   5.4344E+03  0.000E+00  0.000E+00  0.000E+00  2.03003E+03  3.188E-02  3.000E+00  1.350E+03  0.000E+00  0.000E+00
   1   32   42     5     6    5.4344E+03 -1.7359E+02   5.6079E+03  0.000E+00  0.000E+00  0.000E+00  2.02504E+03  3.814E-02  3.000E+00  1.350E+03  0.000E+00  0.000E+00
   1   32   43     5     7    5.6079E+03 -5.9216E+01   5.6672E+03  0.000E+00  0.000E+00  0.000E+00  2.02304E+03  4.279E-02  3.000E+00  1.630E+03  0.000E+00  0.000E+00
   1   33   44     5     8    5.6672E+03 -1.5326E+02   5.8204E+03  0.000E+00  0.000E+00  0.000E+00  2.01904E+03  4.333E-02  3.000E+00  1.909E+03  0.000E+00  0.000E+00
   1   34   45     5     9    5.8204E+03 -3.2840E+01   5.8533E+03  0.000E+00  0.000E+00  0.000E+00  2.01604E+03  4.008E-02  3.000E+00  1.630E+03  0.000E+00  0.000E+00
   1   34   46     5    10    5.8533E+03 -1.1065E+02   5.9639E+03  0.000E+00  0.000E+00  0.000E+00  2.01104E+03  3.683E-02  3.000E+00  1.350E+03  0.000E+00  0.000E+00
   1   34   47     5    11    5.9639E+03  4.1399E+00   5.9598E+03  0.000E+00  0.000E+00  0.000E+00  2.00703E+03  2.914E-02  3.000E+00  6.750E+02  0.000E+00  0.000E+00
   1   34   47     6     1    5.9811E+03  2.6836E+00   5.9784E+03  0.000E+00  0.000E+00  0.000E+00  2.00703E+03  2.699E-02  3.000E+00  6.750E+02  0.000E+00  0.000E+00
   1   34   48     6     2    5.9784E+03 -1.3977E+02   6.1182E+03  0.000E+00  0.000E+00  0.000E+00  2.00104E+03  3.540E-02  3.000E+00  1.630E+03  0.000E+00  0.000E+00
   1   35   49     6     3    6.1182E+03 -2.6886E+02   6.3870E+03  0.000E+00  0.000E+00  0.000E+00  1.99404E+03  3.796E-02  3.000E+00  1.630E+03  0.000E+00  0.000E+00
   1   35   50     6     4    6.3870E+03 -2.0093E+02   6.5880E+03  0.000E+00  0.000E+00  0.000E+00  1.99005E+03  4.647E-02  3.000E+00  1.350E+03  0.000E+00  0.000E+00
   1   35   51     6     5    6.5880E+03  2.8565E+01   6.5594E+03  0.000E+00  0.000E+00  0.000E+00  1.98905E+03  4.692E-02  3.000E+00  1.630E+03  0.000E+00  0.000E+00
   1   36   52     6     6    6.5594E+03 -1.1575E+02   6.6751E+03  0.000E+00  0.000E+00  0.000E+00  1.98404E+03  4.172E-02  3.000E+00  1.630E+03  0.000E+00  0.000E+00
   1   36   53     6     7    6.6751E+03 -2.3009E+02   6.9052E+03  0.000E+00  0.000E+00  0.000E+00  1.98005E+03  5.403E-02  3.000E+00  1.630E+03  0.000E+00  0.000E+00
   1   37   54     6     8    6.9052E+03 -3.0470E+01   6.9357E+03  0.000E+00  0.000E+00  0.000E+00  1.98006E+03  5.731E-02  3.000E+00  1.909E+03  0.000E+00  0.000E+00
   1   36   55     6     9    6.9357E+03 -5.0344E+01   6.9861E+03  0.000E+00  0.000E+00  0.000E+00  1.97604E+03  4.369E-02  3.000E+00  9.546E+02  0.000E+00  0.000E+00
   1   36   34     7     1    2.0234E+03 -5.2866E+01   2.0762E+03  0.000E+00  0.000E+00  0.000E+00  2.07701E+03  1.345E-02  3.000E+00  9.546E+02  0.000E+00  0.000E+00
   1   35   35     7     2    2.0762E+03 -1.1335E+02   2.1896E+03  0.000E+00  0.000E+00  0.000E+00  2.06702E+03  1.814E-02  3.000E+00  1.630E+03  0.000E+00  0.000E+00
   1   35   36     7     3    2.1896E+03  1.6265E+01   2.1733E+03  0.000E+00  0.000E+00  0.000E+00  2.06202E+03  1.814E-02  3.000E+00  1.350E+03  0.000E+00  0.000E+00
   1   35   37     7     4    2.1733E+03 -5.5205E+01   2.2285E+03  0.000E+00  0.000E+00  0.000E+00  2.05401E+03  1.392E-02  3.000E+00  6.750E+02  0.000E+00  0.000E+00
   1   52   49     8     1    0.0000E+00 -1.9998E+02   1.9998E+02  0.000E+00  0.000E+00  0.000E+00  2.12100E+03  2.826E-03  3.000E+00  1.909E+03  0.000E+00  0.000E+00
   1   51   48     8     2    1.9998E+02 -2.0728E+02   4.0725E+02  0.000E+00  0.000E+00  0.000E+00  2.11701E+03  8.782E-03  3.000E+00  1.909E+03  0.000E+00  0.000E+00
   1   50   47     8     3    4.0725E+02  9.7776E+01   3.0948E+02  0.000E+00  0.000E+00  0.000E+00  2.11701E+03  7.514E-03  3.000E+00  1.630E+03  9.774E+01  3.450E-02
   1   49   47     8     4    3.0948E+02 -2.2285E+02   5.3233E+02  0.000E+00  0.000E+00  0.000E+00  2.10901E+03  7.739E-03  3.000E+00  1.630E+03  0.000E+00  0.000E+00
   1   48   46     8     5    5.3233E+02  2.4626E+00   5.2987E+02  0.000E+00  0.000E+00  0.000E+00  2.10701E+03  1.171E-02  3.000E+00  1.630E+03  0.000E+00  0.000E+00
   1   47   46     8     6    5.2987E+02  9.6448E+01   4.3342E+02  0.000E+00  0.000E+00  0.000E+00  2.10501E+03  1.044E-02  3.000E+00  1.350E+03  0.000E+00  0.000E+00
   1   46   46     8     7    4.3342E+02  8.1000E+01   3.5242E+02  0.000E+00  0.000E+00  0.000E+00  2.10301E+03  8.181E-03  3.000E+00  1.350E+03  8.116E+01 -1.593E-01
   1   45   46     8     8    3.5242E+02  8.1000E+01   2.7142E+02  0.000E+00  0.000E+00  0.000E+00  2.09901E+03  5.786E-03  3.000E+00  1.350E+03  8.160E+01 -5.967E-01
   1   44   46     8     9    2.7142E+02  8.1000E+01   1.9042E+02  0.000E+00  0.000E+00  0.000E+00  2.09100E+03  4.209E-03  3.000E+00  1.350E+03  8.211E+01 -1.110E+00
   1   43   46     8    10    1.9042E+02  8.1000E+01   1.0942E+02  0.000E+00  0.000E+00  0.000E+00  2.08000E+03  3.248E-03  3.000E+00  1.350E+03  8.220E+01 -1.201E+00
   1   42   46     8    11    1.0942E+02  9.7776E+01   1.1646E+01  0.000E+00  0.000E+00  0.000E+00  2.07200E+03  1.967E-03  3.000E+00  1.630E+03  9.926E+01 -1.480E+00
   1   41   45     8    12    1.1646E+01  1.1646E+01   0.0000E+00  0.000E+00  0.000E+00  0.000E+00  2.06000E+03  1.696E-04  3.000E+00  1.630E+03  0.000E+00  0.000E+00
   1   40   45     8    13    0.0000E+00  0.0000E+00   0.0000E+00  0.000E+00  0.000E+00  0.000E+00  2.05400E+03  0.000E+00  3.000E+00  1.350E+03  0.000E+00  0.000E+00
   1   39   45     8    14    0.0000E+00  0.0000E+00   0.0000E+00  0.000E+00  0.000E+00  0.000E+00  2.04600E+03  0.000E+00  3.000E+00  1.350E+03  0.000E+00  0.000E+00
   1   38   45     8    15    0.0000E+00  0.0000E+00   0.0000E+00  0.000E+00  0.000E+00  0.000E+00  2.03500E+03  0.000E+00  3.000E+00  1.350E+03  0.000E+00  0.000E+00
   1   37   45     8    16    0.0000E+00  0.0000E+00   0.0000E+00  0.000E+00  0.000E+00  0.000E+00  2.02700E+03  0.000E+00  3.000E+00  1.630E+03  0.000E+00  0.000E+00
   1   36   46     8    17    0.0000E+00  0.0000E+00   0.0000E+00  0.000E+00  0.000E+00  0.000E+00  2.02100E+03  0.000E+00  3.000E+00  1.630E+03  0.000E+00  0.000E+00
   1   35   46     8    18    0.0000E+00  0.0000E+00   0.0000E+00  0.000E+00  0.000E+00  0.000E+00  2.01400E+03  0.000E+00  3.000E+00  1.630E+03  0.000E+00  0.000E+00
   1   34   47     8    19    0.0000E+00 -2.1319E+01   2.1319E+01  0.000E+00  0.000E+00  0.000E+00  2.00700E+03  6.778E-04  3.000E+00  9.546E+02  0.000E+00  0.000E+00
   1   37   26     9     1    0.0000E+00  0.0000E+00   0.0000E+00  0.000E+00  0.000E+00  0.000E+00  2.14700E+03  0.000E+00  3.000E+00  1.350E+03  0.000E+00  0.000E+00
   1   37   27     9     2    0.0000E+00 -3.0331E+01   3.0331E+01  0.000E+00  0.000E+00  0.000E+00  2.13400E+03  7.901E-04  3.000E+00  1.350E+03  0.000E+00  0.000E+00
   1   37   28     9     3    3.0331E+01 -1.2159E+02   1.5192E+02  0.000E+00  0.000E+00  0.000E+00  2.12500E+03  2.549E-03  3.000E+00  1.630E+03  0.000E+00  0.000E+00
   1   36   29     9     4    1.5192E+02  3.1650E+01   1.2027E+02  0.000E+00  0.000E+00  0.000E+00  2.11500E+03  3.296E-03  3.000E+00  1.630E+03  0.000E+00  0.000E+00
   1   36   30     9     5    1.2027E+02 -7.0823E+01   1.9109E+02  0.000E+00  0.000E+00  0.000E+00  2.10700E+03  3.435E-03  3.000E+00  1.350E+03  0.000E+00  0.000E+00
   1   36   31     9     6    1.9109E+02 -1.9776E+02   3.8885E+02  0.000E+00  0.000E+00  0.000E+00  2.09801E+03  5.079E-03  3.000E+00  1.350E+03  0.000E+00  0.000E+00
   1   36   32     9     7    3.8885E+02 -1.4969E+02   5.3854E+02  0.000E+00  0.000E+00  0.000E+00  2.09101E+03  7.007E-03  3.000E+00  1.350E+03  0.000E+00  0.000E+00
   1   36   33     9     8    5.3854E+02 -1.4358E+02   6.8212E+02  0.000E+00  0.000E+00  0.000E+00  2.08401E+03  8.263E-03  3.000E+00  1.350E+03  0.000E+00  0.000E+00
   1   36   34     9     9    6.8212E+02 -4.1810E+01   7.2393E+02  0.000E+00  0.000E+00  0.000E+00  2.07701E+03  6.893E-03  3.000E+00  6.750E+02  0.000E+00  0.000E+00
   1   58   37    10     1    0.0000E+00 -3.3916E+01   3.3916E+01  0.000E+00  0.000E+00  0.000E+00  2.15000E+03  1.402E-03  3.000E+00  1.350E+03  0.000E+00  0.000E+00
   1   57   37    10     2    3.3916E+01 -6.8638E+01   1.0255E+02  0.000E+00  0.000E+00  0.000E+00  2.14700E+03  2.891E-03  3.000E+00  1.630E+03  0.000E+00  0.000E+00
   1   56   38    10     3    1.0255E+02 -9.9799E-01   1.0355E+02  0.000E+00  0.000E+00  0.000E+00  2.14300E+03  3.434E-03  3.000E+00  1.630E+03  0.000E+00  0.000E+00
   1   55   38    10     4    1.0355E+02 -1.7316E+02   2.7671E+02  0.000E+00  0.000E+00  0.000E+00  2.13800E+03  4.855E-03  3.000E+00  1.350E+03  0.000E+00  0.000E+00
   1   54   38    10     5    2.7671E+02 -1.1621E+02   3.9292E+02  0.000E+00  0.000E+00  0.000E+00  2.13501E+03  7.432E-03  3.000E+00  1.350E+03  0.000E+00  0.000E+00
   1   53   38    10     6    3.9292E+02 -1.1383E+02   5.0675E+02  0.000E+00  0.000E+00  0.000E+00  2.13201E+03  8.872E-03  3.000E+00  1.350E+03  0.000E+00  0.000E+00
   1   52   38    10     7    5.0675E+02 -1.7158E+02   6.7833E+02  0.000E+00  0.000E+00  0.000E+00  2.12901E+03  1.251E-02  3.000E+00  1.630E+03  0.000E+00  0.000E+00
   1   51   39    10     8    6.7833E+02  6.6549E+00   6.7168E+02  0.000E+00  0.000E+00  0.000E+00  2.12801E+03  1.352E-02  3.000E+00  1.630E+03  0.000E+00  0.000E+00
   1   50   39    10     9    6.7168E+02 -8.7307E+01   7.5898E+02  0.000E+00  0.000E+00  0.000E+00  2.12501E+03  1.184E-02  3.000E+00  1.630E+03  0.000E+00  0.000E+00
   1   49   38    10    10    7.5898E+02 -1.5529E+02   9.1427E+02  0.000E+00  0.000E+00  0.000E+00  2.12101E+03  1.364E-02  3.000E+00  1.909E+03  0.000E+00  0.000E+00
   1   48   37    10    11    9.1427E+02  1.7098E+01   8.9718E+02  0.000E+00  0.000E+00  0.000E+00  2.11801E+03  1.217E-02  3.000E+00  1.909E+03  0.000E+00  0.000E+00
   1   47   36    10    12    8.9718E+02 -3.4343E+02   1.2406E+03  0.000E+00  0.000E+00  0.000E+00  2.10901E+03  1.282E-02  3.000E+00  1.630E+03  0.000E+00  0.000E+00
   1   46   36    10    13    1.2406E+03 -1.3806E+02   1.3787E+03  0.000E+00  0.000E+00  0.000E+00  2.10602E+03  1.608E-02  3.000E+00  1.350E+03  0.000E+00  0.000E+00
   1   45   36    10    14    1.3787E+03 -1.7250E+02   1.5512E+03  0.000E+00  0.000E+00  0.000E+00  2.10202E+03  1.720E-02  3.000E+00  1.350E+03  0.000E+00  0.000E+00
   1   44   36    10    15    1.5512E+03 -9.9419E+01   1.6506E+03  0.000E+00  0.000E+00  0.000E+00  2.09902E+03  1.900E-02  3.000E+00  1.350E+03  0.000E+00  0.000E+00
   1   43   36    10    16    1.6506E+03 -3.4113E+00   1.6540E+03  0.000E+00  0.000E+00  0.000E+00  2.09602E+03  1.814E-02  3.000E+00  1.630E+03  0.000E+00  0.000E+00
   1   42   37    10    17    1.6540E+03  9.7776E+01   1.5562E+03  0.000E+00  0.000E+00  0.000E+00  2.09001E+03  1.500E-02  3.000E+00  1.630E+03  9.791E+01 -1.328E-01
   1   41   37    10    18    1.5562E+03 -2.3117E+02   1.7874E+03  0.000E+00  0.000E+00  0.000E+00  2.08001E+03  1.453E-02  3.000E+00  1.350E+03  0.000E+00  0.000E+00
   1   40   37    10    19    1.7874E+03 -3.3065E+02   2.1180E+03  0.000E+00  0.000E+00  0.000E+00  2.07402E+03  2.006E-02  3.000E+00  1.630E+03  0.000E+00  0.000E+00
   1   39   38    10    20    2.1180E+03 -3.5349E+01   2.1534E+03  0.000E+00  0.000E+00  0.000E+00  2.07102E+03  2.282E-02  3.000E+00  1.630E+03  0.000E+00  0.000E+00
   1   38   38    10    21    2.1534E+03  1.1221E+01   2.1422E+03  0.000E+00  0.000E+00  0.000E+00  2.06702E+03  2.058E-02  3.000E+00  1.630E+03  0.000E+00  0.000E+00
   1   37   37    10    22    2.1422E+03 -3.0030E+02   2.4425E+03  0.000E+00  0.000E+00  0.000E+00  2.06102E+03  2.140E-02  3.000E+00  1.630E+03  0.000E+00  0.000E+00
   1   36   37    10    23    2.4425E+03 -2.1182E+02   2.6543E+03  0.000E+00  0.000E+00  0.000E+00  2.05702E+03  2.398E-02  3.000E+00  1.350E+03  0.000E+00  0.000E+00
   1   35   37    10    24    2.6543E+03 -5.2767E+01   2.7071E+03  0.000E+00  0.000E+00  0.000E+00  2.05402E+03  1.753E-02  3.000E+00  6.750E+02  0.000E+00  0.000E+00
   1   36   55    11     1    7.5030E+03 -3.9917E+01   7.5429E+03  0.000E+00  0.000E+00  0.000E+00  1.97604E+03  3.729E-02  3.000E+00  6.750E+02  0.000E+00  0.000E+00
   1   36   56    11     2    7.5429E+03 -4.8314E+01   7.5912E+03  0.000E+00  0.000E+00  0.000E+00  1.97506E+03  6.286E-02  3.000E+00  1.630E+03  0.000E+00  0.000E+00
   1   37   57    11     3    7.5912E+03 -1.2807E+02   7.7193E+03  0.000E+00  0.000E+00  0.000E+00  1.97306E+03  6.330E-02  3.000E+00  1.630E+03  0.000E+00  0.000E+00
   1   37   58    11     4    7.7193E+03 -7.9977E+01   7.7992E+03  0.000E+00  0.000E+00  0.000E+00  1.97208E+03  8.385E-02  3.000E+00  1.350E+03  0.000E+00  0.000E+00
   1   37   59    11     5    7.7992E+03  4.8062E+00   7.7944E+03  0.000E+00  0.000E+00  0.000E+00  1.97207E+03  6.831E-02  3.000E+00  1.350E+03  0.000E+00  0.000E+00
   1   37   60    11     6    7.7944E+03 -2.1733E+01   7.8162E+03  0.000E+00  0.000E+00  0.000E+00  1.97005E+03  5.494E-02  3.000E+00  1.630E+03  0.000E+00  0.000E+00
   1   38   61    11     7    7.8162E+03 -7.2960E+01   7.8891E+03  0.000E+00  0.000E+00  0.000E+00  1.96705E+03  4.985E-02  3.000E+00  1.630E+03  0.000E+00  0.000E+00
   1   38   62    11     8    7.8891E+03 -9.4443E+01   7.9836E+03  0.000E+00  0.000E+00  0.000E+00  1.96305E+03  4.555E-02  3.000E+00  6.750E+02  0.000E+00  0.000E+00
   1   51   11    12     1    0.0000E+00 -4.4665E+02   4.4665E+02  0.000E+00  0.000E+00  0.000E+00  2.38700E+03  4.381E-03  3.000E+00  1.909E+03  0.000E+00  0.000E+00
   1   50   12    12     2    4.4665E+02 -6.1564E+01   5.0822E+02  0.000E+00  0.000E+00  0.000E+00  2.37501E+03  6.589E-03  3.000E+00  1.630E+03  0.000E+00  0.000E+00
   1   49   12    12     3    5.0822E+02 -3.8872E+02   8.9693E+02  0.000E+00  0.000E+00  0.000E+00  2.36501E+03  8.681E-03  3.000E+00  1.630E+03  0.000E+00  0.000E+00
   1   48   13    12     4    8.9693E+02 -1.8169E+02   1.0786E+03  0.000E+00  0.000E+00  0.000E+00  2.35601E+03  1.143E-02  3.000E+00  1.630E+03  0.000E+00  0.000E+00
   1   48   14    12     5    1.0786E+03 -1.6188E+02   1.2405E+03  0.000E+00  0.000E+00  0.000E+00  2.35001E+03  1.235E-02  3.000E+00  1.630E+03  0.000E+00  0.000E+00
   1   47   15    12     6    1.2405E+03 -1.6382E+02   1.4043E+03  0.000E+00  0.000E+00  0.000E+00  2.34001E+03  1.362E-02  3.000E+00  1.630E+03  0.000E+00  0.000E+00
   1   47   16    12     7    1.4043E+03 -1.3052E+02   1.5349E+03  0.000E+00  0.000E+00  0.000E+00  2.33502E+03  1.592E-02  3.000E+00  1.630E+03  0.000E+00  0.000E+00
   1   46   17    12     8    1.5349E+03  7.7491E+01   1.4574E+03  0.000E+00  0.000E+00  0.000E+00  2.32901E+03  1.497E-02  3.000E+00  1.630E+03  0.000E+00  0.000E+00
   1   46   18    12     9    1.4574E+03  1.6800E+02   1.2894E+03  0.000E+00  0.000E+00  0.000E+00  2.32101E+03  1.158E-02  3.000E+00  1.350E+03  0.000E+00  0.000E+00
   1   46   19    12    10    1.2894E+03 -1.6336E+02   1.4527E+03  0.000E+00  0.000E+00  0.000E+00  2.30601E+03  1.315E-02  3.000E+00  1.350E+03  0.000E+00  0.000E+00
   1   46   20    12    11    1.4527E+03  9.7776E+01   1.3549E+03  0.000E+00  0.000E+00  0.000E+00  2.30601E+03  1.125E-02  3.000E+00  1.630E+03  9.780E+01 -2.065E-02
   1   45   21    12    12    1.3549E+03 -5.5443E+01   1.4104E+03  0.000E+00  0.000E+00  0.000E+00  2.27401E+03  9.880E-03  3.000E+00  1.909E+03  0.000E+00  0.000E+00
   1   44   22    12    13    1.4104E+03 -1.4579E+02   1.5562E+03  0.000E+00  0.000E+00  0.000E+00  2.25001E+03  1.116E-02  3.000E+00  1.909E+03  0.000E+00  0.000E+00
   1   43   23    12    14    1.5562E+03  1.5100E+02   1.4052E+03  0.000E+00  0.000E+00  0.000E+00  2.23101E+03  1.122E-02  3.000E+00  1.909E+03  0.000E+00  0.000E+00
   1   42   24    12    15    1.4052E+03 -7.6129E+01   1.4813E+03  0.000E+00  0.000E+00  0.000E+00  2.20801E+03  1.154E-02  3.000E+00  1.630E+03  0.000E+00  0.000E+00
   1   42   25    12    16    1.4813E+03 -1.5274E+01   1.4966E+03  0.000E+00  0.000E+00  0.000E+00  2.20001E+03  1.268E-02  3.000E+00  1.350E+03  0.000E+00  0.000E+00
   1   42   26    12    17    1.4966E+03  1.2535E+02   1.3712E+03  0.000E+00  0.000E+00  0.000E+00  2.18801E+03  1.098E-02  3.000E+00  1.350E+03  0.000E+00  0.000E+00
   1   42   27    12    18    1.3712E+03 -2.6245E+02   1.6337E+03  0.000E+00  0.000E+00  0.000E+00  2.17001E+03  1.140E-02  3.000E+00  1.350E+03  0.000E+00  0.000E+00
   1   42   28    12    19    1.6337E+03 -9.0002E+01   1.7237E+03  0.000E+00  0.000E+00  0.000E+00  2.15901E+03  1.303E-02  3.000E+00  1.630E+03  0.000E+00  0.000E+00
   1   41   29    12    20    1.7237E+03  1.5378E+02   1.5699E+03  0.000E+00  0.000E+00  0.000E+00  2.14201E+03  1.298E-02  3.000E+00  1.909E+03  0.000E+00  0.000E+00
   1   40   30    12    21    1.5699E+03  7.4471E+01   1.4954E+03  0.000E+00  0.000E+00  0.000E+00  2.12701E+03  1.308E-02  3.000E+00  1.909E+03  0.000E+00  0.000E+00
   1   39   31    12    22    1.4954E+03  1.1455E+02   1.3809E+03  0.000E+00  0.000E+00  0.000E+00  2.11501E+03  1.304E-02  3.000E+00  1.909E+03  1.152E+02 -6.049E-01
   1   38   32    12    23    1.3809E+03  1.1455E+02   1.2663E+03  0.000E+00  0.000E+00  0.000E+00  2.10301E+03  1.212E-02  3.000E+00  1.909E+03  1.156E+02 -1.084E+00
   1   37   33    12    24    1.2663E+03  2.2957E+01   1.2434E+03  0.000E+00  0.000E+00  0.000E+00  2.08901E+03  1.173E-02  3.000E+00  1.909E+03  0.000E+00  0.000E+00
   1   36   34    12    25    1.2434E+03 -5.6065E+01   1.2994E+03  0.000E+00  0.000E+00  0.000E+00  2.07701E+03  1.010E-02  3.000E+00  9.546E+02  0.000E+00  0.000E+00
   1   38   62    13     1    8.1581E+03 -1.0135E+02   8.2595E+03  0.000E+00  0.000E+00  0.000E+00  1.96304E+03  3.531E-02  3.000E+00  6.750E+02  0.000E+00  0.000E+00
   1   38   63    13     2    8.2595E+03 -6.3736E+00   8.2659E+03  0.000E+00  0.000E+00  0.000E+00  1.96531E+03  2.308E+00  3.000E+00  1.350E+03  0.000E+00  0.000E+00
   1   38   64    13     3    8.2659E+03  1.8865E+01   8.2470E+03  0.000E+00  0.000E+00  0.000E+00  1.96531E+03  2.307E+00  3.000E+00  1.350E+03  0.000E+00  0.000E+00
   1   38   65    13     4    8.2470E+03 -3.9277E+01   8.2863E+03  0.000E+00  0.000E+00  0.000E+00  1.96306E+03  6.264E-02  3.000E+00  1.350E+03  0.000E+00  0.000E+00
   1   38   66    13     5    8.2863E+03 -8.1990E+01   8.3683E+03  0.000E+00  0.000E+00  0.000E+00  1.96005E+03  5.398E-02  3.000E+00  1.350E+03  0.000E+00  0.000E+00
   1   38   67    13     6    8.3683E+03 -5.1398E+01   8.4197E+03  0.000E+00  0.000E+00  0.000E+00  1.95805E+03  5.188E-02  3.000E+00  1.630E+03  0.000E+00  0.000E+00
   1   39   68    13     7    8.4197E+03 -2.5132E+01   8.4448E+03  0.000E+00  0.000E+00  0.000E+00  1.95305E+03  4.674E-02  3.000E+00  1.630E+03  0.000E+00  0.000E+00
   1   39   69    13     8    8.4448E+03 -8.5708E+01   8.5305E+03  0.000E+00  0.000E+00  0.000E+00  1.94805E+03  4.936E-02  3.000E+00  1.350E+03  0.000E+00  0.000E+00
   1   39   70    13     9    8.5305E+03  1.8775E+01   8.5117E+03  0.000E+00  0.000E+00  0.000E+00  1.94604E+03  4.209E-02  3.000E+00  6.750E+02  0.000E+00  0.000E+00
   1   46   61    14     1    0.0000E+00  0.0000E+00   0.0000E+00  0.000E+00  0.000E+00  0.000E+00  2.01700E+03  0.000E+00  3.000E+00  1.350E+03  0.000E+00  0.000E+00
   1   45   61    14     2    0.0000E+00  0.0000E+00   0.0000E+00  0.000E+00  0.000E+00  0.000E+00  2.01000E+03  0.000E+00  3.000E+00  1.350E+03  0.000E+00  0.000E+00
   1   44   61    14     3    0.0000E+00  0.0000E+00   0.0000E+00  0.000E+00  0.000E+00  0.000E+00  2.00600E+03  0.000E+00  3.000E+00  1.350E+03  0.000E+00  0.000E+00
   1   43   61    14     4    0.0000E+00  0.0000E+00   0.0000E+00  0.000E+00  0.000E+00  0.000E+00  1.99900E+03  0.000E+00  3.000E+00  1.350E+03  0.000E+00  0.000E+00
   1   42   61    14     5    0.0000E+00  0.0000E+00   0.0000E+00  0.000E+00  0.000E+00  0.000E+00  1.99300E+03  0.000E+00  3.000E+00  1.350E+03  0.000E+00  0.000E+00
   1   41   61    14     6    0.0000E+00  0.0000E+00   0.0000E+00  0.000E+00  0.000E+00  0.000E+00  1.98500E+03  0.000E+00  3.000E+00  1.350E+03  0.000E+00  0.000E+00
   1   40   61    14     7    0.0000E+00  0.0000E+00   0.0000E+00  0.000E+00  0.000E+00  0.000E+00  1.97800E+03  0.000E+00  3.000E+00  1.350E+03  0.000E+00  0.000E+00
   1   39   61    14     8    0.0000E+00  0.0000E+00   0.0000E+00  0.000E+00  0.000E+00  0.000E+00  1.97300E+03  0.000E+00  3.000E+00  1.630E+03  0.000E+00  0.000E+00
   1   38   62    14     9    0.0000E+00 -1.7459E+02   1.7459E+02  0.000E+00  0.000E+00  0.000E+00  1.96300E+03  2.568E-03  3.000E+00  9.546E+02  0.000E+00  0.000E+00
   1   39   70    15     1    8.8653E+03  1.4609E+01   8.8507E+03  0.000E+00  0.000E+00  0.000E+00  1.94604E+03  3.592E-02  3.000E+00  6.750E+02  0.000E+00  0.000E+00
   1   39   71    15     2    8.8507E+03 -1.0720E+02   8.9579E+03  0.000E+00  0.000E+00  0.000E+00  1.94206E+03  5.946E-02  3.000E+00  1.630E+03  0.000E+00  0.000E+00
   1   40   72    15     3    8.9579E+03 -2.3351E+01   8.9813E+03  0.000E+00  0.000E+00  0.000E+00  1.94106E+03  6.385E-02  3.000E+00  1.630E+03  0.000E+00  0.000E+00
   1   40   73    15     4    8.9813E+03 -4.7110E+01   9.0284E+03  0.000E+00  0.000E+00  0.000E+00  1.93806E+03  5.657E-02  3.000E+00  1.350E+03  0.000E+00  0.000E+00
   1   40   74    15     5    9.0284E+03 -3.1235E+01   9.0596E+03  0.000E+00  0.000E+00  0.000E+00  1.93606E+03  6.065E-02  3.000E+00  1.350E+03  0.000E+00  0.000E+00
   1   40   75    15     6    9.0596E+03 -9.9435E-01   9.0606E+03  0.000E+00  0.000E+00  0.000E+00  1.93405E+03  5.376E-02  3.000E+00  6.750E+02  0.000E+00  0.000E+00
   1   40   75    16     1    9.8580E+03 -4.5284E+00   9.8625E+03  0.000E+00  0.000E+00  0.000E+00  1.93405E+03  4.852E-02  3.000E+00  6.750E+02  0.000E+00  0.000E+00
   1   40   76    16     2    9.8625E+03  0.0000E+00   9.8625E+03  0.000E+00  0.000E+00  0.000E+00  1.93307E+03  6.964E-02  3.000E+00  0.000E+00  0.000E+00  0.000E+00
   1   55   73    17     1    0.0000E+00  0.0000E+00   0.0000E+00  0.000E+00  0.000E+00  0.000E+00  2.04100E+03  0.000E+00  3.000E+00  1.350E+03  0.000E+00  0.000E+00
   1   54   73    17     2    0.0000E+00  0.0000E+00   0.0000E+00  0.000E+00  0.000E+00  0.000E+00  2.02900E+03  0.000E+00  3.000E+00  1.350E+03  0.000E+00  0.000E+00
   1   53   73    17     3    0.0000E+00  0.0000E+00   0.0000E+00  0.000E+00  0.000E+00  0.000E+00  2.01700E+03  0.000E+00  3.000E+00  1.350E+03  0.000E+00  0.000E+00
   1   52   73    17     4    0.0000E+00 -4.3168E+01   4.3168E+01  0.000E+00  0.000E+00  0.000E+00  2.01000E+03  1.076E-03  3.000E+00  1.630E+03  0.000E+00  0.000E+00
   1   51   72    17     5    4.3168E+01 -2.3762E+02   2.8078E+02  0.000E+00  0.000E+00  0.000E+00  1.99800E+03  3.722E-03  3.000E+00  1.630E+03  0.000E+00  0.000E+00
   1   50   72    17     6    2.8078E+02 -1.6104E+01   2.9689E+02  0.000E+00  0.000E+00  0.000E+00  1.99301E+03  5.526E-03  3.000E+00  1.350E+03  0.000E+00  0.000E+00
   1   49   72    17     7    2.9689E+02 -7.3138E+01   3.7003E+02  0.000E+00  0.000E+00  0.000E+00  1.98601E+03  5.749E-03  3.000E+00  1.350E+03  0.000E+00  0.000E+00
   1   48   72    17     8    3.7003E+02 -9.7916E+01   4.6794E+02  0.000E+00  0.000E+00  0.000E+00  1.97901E+03  6.594E-03  3.000E+00  1.350E+03  0.000E+00  0.000E+00
   1   47   72    17     9    4.6794E+02 -1.8355E+02   6.5149E+02  0.000E+00  0.000E+00  0.000E+00  1.97201E+03  8.022E-03  3.000E+00  1.350E+03  0.000E+00  0.000E+00
   1   46   72    17    10    6.5149E+02 -1.5327E+01   6.6681E+02  0.000E+00  0.000E+00  0.000E+00  1.96601E+03  9.063E-03  3.000E+00  1.350E+03  0.000E+00  0.000E+00
   1   45   72    17    11    6.6681E+02 -2.7976E+00   6.6961E+02  0.000E+00  0.000E+00  0.000E+00  1.96001E+03  9.232E-03  3.000E+00  1.630E+03  0.000E+00  0.000E+00
   1   44   73    17    12    6.6961E+02 -2.0904E+01   6.9052E+02  0.000E+00  0.000E+00  0.000E+00  1.95201E+03  9.539E-03  3.000E+00  1.630E+03  0.000E+00  0.000E+00
   1   43   73    17    13    6.9052E+02 -4.0369E+01   7.3089E+02  0.000E+00  0.000E+00  0.000E+00  1.94701E+03  1.071E-02  3.000E+00  1.350E+03  0.000E+00  0.000E+00
   1   42   73    17    14    7.3089E+02  6.2731E+00   7.2461E+02  0.000E+00  0.000E+00  0.000E+00  1.94401E+03  1.109E-02  3.000E+00  1.630E+03  0.000E+00  0.000E+00
   1   41   74    17    15    7.2461E+02 -3.1283E+01   7.5589E+02  0.000E+00  0.000E+00  0.000E+00  1.93801E+03  1.139E-02  3.000E+00  1.909E+03  0.000E+00  0.000E+00
   1   40   75    17    16    7.5589E+02 -4.1536E+01   7.9743E+02  0.000E+00  0.000E+00  0.000E+00  1.93401E+03  1.172E-02  3.000E+00  9.546E+02  0.000E+00  0.000E+00
   1   37   55    18     1    0.0000E+00  0.0000E+00   0.0000E+00  0.000E+00  0.000E+00  0.000E+00  2.00700E+03  0.000E+00  3.000E+00  1.630E+03  0.000E+00  0.000E+00
   1   36   54    19     1    0.0000E+00  0.0000E+00   0.0000E+00  0.000E+00  0.000E+00  0.000E+00  2.00700E+03  0.000E+00  3.000E+00  1.630E+03  0.000E+00  0.000E+00



1
  VOLUMETRIC BUDGET FOR UNSATURATED ZONE BENEATH STREAMS AT END OF TIME STEP    31 STRESS PERIOD   2
  ------------------------------------------------------------------------------------------------

    CUMULATIVE VOLUMES             L**3    RATES FOR THIS TIME STEP         L**3/T
    ------------------                     ------------------------


          STREAM LOSS =        31601.0996            STREAM LOSS =         1210.4543
    CHANGE IN STORAGE =          555.8707      CHANGE IN STORAGE =           24.4496
       RECHARGE TO GW =        31045.2930         RECHARGE TO GW =         1186.0049

             TOTAL IN =        31601.0996               TOTAL IN =         1210.4543

            TOTAL OUT =        31601.1641              TOTAL OUT =         1210.4546

             IN - OUT =       -6.4453E-02               IN - OUT =       -2.4414E-04

  PERCENT DISCREPANCY =           -0.00      PERCENT DISCREPANCY =            -0.00



 ***WARNING***NUZTOP IS 3 AND ALL LAYERS  IN ROW           39  AND COLUMN           76  ARE INACTIVE.
 UNSATURATED FLOW WILL NOT BE ADDED TO ANY LAYER-- SOME WATER MAY FLOW PAST LOWEST LAYER
 ***WARNING***NUZTOP IS 3 AND ALL LAYERS  IN ROW           40  AND COLUMN           76  ARE INACTIVE.
 UNSATURATED FLOW WILL NOT BE ADDED TO ANY LAYER-- SOME WATER MAY FLOW PAST LOWEST LAYER


UNSATURATED ZONE PACKAGE VOLUMETRIC BUDGET FOR  TIME STEP    31 STRESS PERIOD    2
  ------------------------------------------------------------------------------



     CUMULATIVE VOLUMES      L**3       RATES FOR THIS TIME STEP      L**3/T
     ------------------                 ------------------------

           IN:                                      IN:
           ---                                      ---
        INFILTRATION =       26653.0419          INFILTRATION =       0.0000E+00

          OUT:                                     OUT:
          ----                                     ----
              UZF ET =      653559.0961                UZF ET =         352.4891
        UZF RECHARGE =      723847.7219          UZF RECHARGE =       20093.0723

            IN - OUT =    -1350753.7760              IN - OUT =      -20445.5614

          STORAGE:                                 STORAGE:
          --------                                 --------
      STORAGE CHANGE =    -1348790.2766        STORAGE CHANGE =      -20445.0848

 PERCENT DISCREPANCY IS DIFFERENCE BETWEEN IN-OUT MINUS CHANGE IN STORAGE
 DIVIDED BY THE AVERAGE OF IN AND OUT TIMES 100

 PERCENT DISCREPANCY =          -0.04     PERCENT DISCREPANCY =          -0.00






1
  VOLUMETRIC BUDGET FOR AGRICULTURAL FIELDS AT  END OF TIME STEP   31, STRESS PERIOD   2
  ------------------------------------------------------------------------------

     CUMULATIVE VOLUMES      L**3       RATES FOR THIS TIME STEP      L**3/T
     ------------------                 ------------------------

           IN:                                      IN:
           ---                                      ---
               AG WELLS  =           0.0000                 AG WELLS  =          -0.0000
      DIVERSION SEGMENTS =           0.0000        DIVERSION SEGMENTS =           0.0000
       IRRIGATION PONDS  =           0.0000         IRRIGATION PONDS  =           0.0000
           GW IRRIGATION =           0.0000             GW IRRIGATION =           0.0000
           SW IRRIGATION =           0.0000             SW IRRIGATION =           0.0000
        SYSTEM LOSSES GW =           0.0000          SYSTEM LOSSES GW =           0.0000
        SYSTEM LOSSES SW =           0.0000          SYSTEM LOSSES SW =          -0.0000

                TOTAL IN =           0.0000                  TOTAL IN =           0.0000

          OUT:                                     OUT:
          ----                                     ----
               AG WELLS  =           0.0000                 AG WELLS  =           0.0000
      DIVERSION SEGMENTS =           0.0000        DIVERSION SEGMENTS =           0.0000
       IRRIGATION PONDS  =           0.0000         IRRIGATION PONDS  =           0.0000
           GW IRRIGATION =           0.0000             GW IRRIGATION =           0.0000
           SW IRRIGATION =           0.0000             SW IRRIGATION =           0.0000
        SYSTEM LOSSES GW =           0.0000          SYSTEM LOSSES GW =           0.0000
        SYSTEM LOSSES SW =           0.0000          SYSTEM LOSSES SW =           0.0000

               TOTAL OUT =           0.0000                 TOTAL OUT =           0.0000

                IN - OUT =           0.0000                  IN - OUT =           0.0000

     PERCENT DISCREPANCY =           0.00         PERCENT DISCREPANCY =           0.00



1
  VOLUMETRIC BUDGET FOR ENTIRE MODEL AT END OF TIME STEP   31, STRESS PERIOD   2
  ------------------------------------------------------------------------------

     CUMULATIVE VOLUMES      L**3       RATES FOR THIS TIME STEP      L**3/T
     ------------------                 ------------------------

           IN:                                      IN:
           ---                                      ---
             STORAGE     =       32869.9258               STORAGE     =        1723.8818
       CONSTANT HEAD     =           0.0000         CONSTANT HEAD     =           0.0000
      STREAM LEAKAGE     =       96724.1172        STREAM LEAKAGE     =        2549.0327
        UZF RECHARGE     =      723861.9375          UZF RECHARGE     =       20093.1016
               GW ET     =           0.0000                 GW ET     =           0.0000
     SURFACE LEAKAGE     =           0.0000       SURFACE LEAKAGE     =           0.0000
           AG WELLS      =           0.0000             AG WELLS      =           0.0000

                TOTAL IN =      853456.0000                  TOTAL IN =       24366.0156

          OUT:                                     OUT:
          ----                                     ----
             STORAGE     =      315060.4062               STORAGE     =       10024.6875
       CONSTANT HEAD     =        1157.1289         CONSTANT HEAD     =          36.1339
      STREAM LEAKAGE     =      346155.4375        STREAM LEAKAGE     =       12431.6963
        UZF RECHARGE     =           0.0000          UZF RECHARGE     =           0.0000
               GW ET     =      189277.9219                 GW ET     =        1794.8037
     SURFACE LEAKAGE     =        1723.5571       SURFACE LEAKAGE     =          76.5487
           AG WELLS      =           0.0000             AG WELLS      =           0.0000

               TOTAL OUT =      853374.5000                 TOTAL OUT =       24363.8691

                IN - OUT =          81.5000                  IN - OUT =           2.1465

     PERCENT DISCREPANCY =           0.01         PERCENT DISCREPANCY =           0.01






         TIME SUMMARY AT END OF TIME STEP   31 IN STRESS PERIOD    2
                    SECONDS     MINUTES      HOURS       DAYS        YEARS
                    -----------------------------------------------------------
   TIME STEP LENGTH  86400.      1440.0      24.000      1.0000     2.73785E-03
 STRESS PERIOD TIME 2.67840E+06  44640.      744.00      31.000     8.48734E-02
         TOTAL TIME 2.76480E+06  46080.      768.00      32.000     8.76112E-02
1
1
                            STRESS PERIOD NO.    3, LENGTH =   30.00000    
                            -----------------------------------------------

                              NUMBER OF TIME STEPS =    30

                               MULTIPLIER FOR DELT =     1.000

                            INITIAL TIME STEP SIZE =   1.000000    
 USING INFILTRATION RATE FROM PREVIOUS STRESS 
 PERIOD.CURRENT PERIOD IS:            3

USING ET RATE FROM PREVIOUS STRESS PERIOD. CURRENT PERIOD IS:       3

 USING ET EXTINCTION DEPTH FROM PREVIOUS STRESS PERIOD. CURRENT PERIOD IS:       3

 USING EXTINCTION WATER CONTENT FROM PREVIOUS STRESS PERIOD. CURRENT PERIOD IS:       3

 PROCESSING AG STRESS PERIOD DATA

 READING AG STRESS PERIOD DATA

 READING IRRIGATION POND

 END PROCESSING AG STRESS PERIOD DATA OPTIONS
                                                   Max.-Head-Change                         Max.-Flux-Residual
  Residual-Control   Outer-Iter.   Inner-Iter.     Column Row Layer    Maximum-Head-Change  Column Row Layer    Maximum-Flux-Residual          L2-NORM 
          0                 1           4            47   23     1       0.8777334140E+00      69   28    1         0.8279265089E+02      0.4309645336E+03
          0                 2           4            30   27     1       0.2087752746E+01      21   51    1         0.3471230778E+02      0.8757449354E+02
          0                 3           2            64   38     1       0.9072438913E-02      64   38    1         0.1277782377E+02      0.2923060857E+02
          0                 4           2            63   38     1       0.1065038833E-01      63   38    1         0.1504628118E+02      0.2280143431E+02
          0                 5           2            64   38     1       0.4863663742E-02      64   38    1         0.6885972804E+01      0.9298863481E+01
          0                 6           2            64   38     1       0.1435030275E-02      64   38    1         0.2038539677E+01      0.2795112451E+01
          0                 7           1             5   57     1       0.4207718907E-03      64   38    1         0.4630489555E+00      0.8572278964E+00

    ------------------------------------------------
       NWT REQUIRED            7 OUTER ITERATIONS 
       AND A TOTAL OF         17 INNER ITERATIONS.
    ------------------------------------------------

 OUTPUT CONTROL FOR STRESS PERIOD    3   TIME STEP    1
    PRINT BUDGET
    SAVE BUDGET
    SAVE HEAD FOR ALL LAYERS



 STREAM LISTING     PERIOD      3   STEP        1

 LAYER ROW COL. STREAM  RCH.   FLOW INTO    STREAM     FLOW OUT OF   OVRLND.    DIRECT     STREAM      STREAM      STREAM     STREAM  STREAMBED   FLOW TO   CHNG. UNSAT. 
                SEG.NO.  NO.   STRM. RCH.    LOSS       STRM. RCH.   RUNOFF     PRECIP       ET         HEAD        DEPTH      WIDTH  CONDCTNC.   WAT. TAB.

   1   18   62     1     1    0.0000E+00  8.7022E-01   0.0000E+00  8.702E-01  0.000E+00  0.000E+00  2.07300E+03  2.398E-05  3.000E+00  1.909E+03  0.000E+00  0.000E+00
   1   19   63     1     2    0.0000E+00 -4.8725E+01   4.9595E+01  8.702E-01  0.000E+00  0.000E+00  2.06300E+03  1.225E-03  3.000E+00  1.909E+03  0.000E+00  0.000E+00
   1   20   64     1     3    4.9595E+01 -7.6528E+01   1.2699E+02  8.702E-01  0.000E+00  0.000E+00  2.05400E+03  2.871E-03  3.000E+00  1.630E+03  0.000E+00  0.000E+00
   1   21   64     1     4    1.2699E+02 -7.8513E+01   2.0638E+02  8.702E-01  0.000E+00  0.000E+00  2.05101E+03  5.174E-03  3.000E+00  1.630E+03  0.000E+00  0.000E+00
   1   22   65     1     5    2.0638E+02 -9.1352E+00   2.1638E+02  8.702E-01  0.000E+00  0.000E+00  2.04801E+03  5.083E-03  3.000E+00  9.546E+02  0.000E+00  0.000E+00
   1   20   66     2     1    0.0000E+00  0.0000E+00   0.0000E+00  0.000E+00  0.000E+00  0.000E+00  2.05300E+03  0.000E+00  3.000E+00  1.909E+03  0.000E+00  0.000E+00
   1   21   65     2     2    0.0000E+00  0.0000E+00   0.0000E+00  0.000E+00  0.000E+00  0.000E+00  2.05100E+03  0.000E+00  3.000E+00  1.630E+03  0.000E+00  0.000E+00
   1   22   65     2     3    0.0000E+00 -9.5686E+00   9.5686E+00  0.000E+00  0.000E+00  0.000E+00  2.04800E+03  4.774E-04  3.000E+00  6.750E+02  0.000E+00  0.000E+00
   1   22   65     3     1    2.2595E+02 -6.6437E+00   2.3259E+02  0.000E+00  0.000E+00  0.000E+00  2.04800E+03  4.811E-03  3.000E+00  6.750E+02  0.000E+00  0.000E+00
   1   23   65     3     2    2.3259E+02 -8.3995E+01   3.1659E+02  0.000E+00  0.000E+00  0.000E+00  2.04501E+03  8.595E-03  3.000E+00  1.630E+03  0.000E+00  0.000E+00
   1   24   66     3     3    3.1659E+02 -1.5578E+01   3.3217E+02  0.000E+00  0.000E+00  0.000E+00  2.04533E+03  3.309E-01  3.000E+00  1.909E+03  0.000E+00  0.000E+00
   1   25   67     3     4    3.3217E+02  2.2268E+01   3.0990E+02  0.000E+00  0.000E+00  0.000E+00  2.04501E+03  9.898E-03  3.000E+00  1.909E+03  0.000E+00  0.000E+00
   1   26   68     3     5    3.0990E+02  1.9263E+01   2.9063E+02  0.000E+00  0.000E+00  0.000E+00  2.04201E+03  8.318E-03  3.000E+00  1.630E+03  0.000E+00  0.000E+00
   1   27   68     3     6    2.9063E+02  9.7776E+01   1.9286E+02  0.000E+00  0.000E+00  0.000E+00  2.04101E+03  6.467E-03  3.000E+00  1.630E+03  1.019E+02 -4.087E+00
   1   28   69     3     7    1.9286E+02  9.7776E+01   9.5083E+01  0.000E+00  0.000E+00  0.000E+00  2.03600E+03  3.848E-03  3.000E+00  1.630E+03  1.022E+02 -4.392E+00
   1   29   69     3     8    9.5083E+01  8.1000E+01   1.4083E+01  0.000E+00  0.000E+00  0.000E+00  2.02900E+03  1.987E-03  3.000E+00  1.350E+03  8.213E+01 -1.132E+00
   1   30   69     3     9    1.4083E+01  1.4083E+01   0.0000E+00  0.000E+00  0.000E+00  0.000E+00  2.02300E+03  1.894E-04  3.000E+00  1.630E+03  6.270E+00  7.813E+00
   1   31   70     3    10    0.0000E+00 -9.7828E+01   9.7828E+01  0.000E+00  0.000E+00  0.000E+00  2.01100E+03  1.784E-03  3.000E+00  1.630E+03  0.000E+00  0.000E+00
   1   32   70     3    11    9.7828E+01 -2.1504E+02   3.1287E+02  0.000E+00  0.000E+00  0.000E+00  2.00501E+03  5.084E-03  3.000E+00  1.350E+03  0.000E+00  0.000E+00
   1   33   70     3    12    3.1287E+02  9.1836E+00   3.0368E+02  0.000E+00  0.000E+00  0.000E+00  2.00301E+03  5.296E-03  3.000E+00  1.630E+03  0.000E+00  0.000E+00
   1   34   69     3    13    3.0368E+02 -3.7019E+01   3.4070E+02  0.000E+00  0.000E+00  0.000E+00  1.98600E+03  4.742E-03  3.000E+00  1.630E+03  0.000E+00  0.000E+00
   1   35   69     3    14    3.4070E+02 -5.0064E+01   3.9077E+02  0.000E+00  0.000E+00  0.000E+00  1.97301E+03  5.546E-03  3.000E+00  1.350E+03  0.000E+00  0.000E+00
   1   36   69     3    15    3.9077E+02 -3.2069E+00   3.9397E+02  0.000E+00  0.000E+00  0.000E+00  1.96701E+03  6.339E-03  3.000E+00  1.350E+03  0.000E+00  0.000E+00
   1   37   69     3    16    3.9397E+02  8.0972E+00   3.8588E+02  0.000E+00  0.000E+00  0.000E+00  1.95901E+03  6.315E-03  3.000E+00  1.350E+03  0.000E+00  0.000E+00
   1   38   69     3    17    3.8588E+02  1.5898E+01   3.6998E+02  0.000E+00  0.000E+00  0.000E+00  1.95301E+03  6.706E-03  3.000E+00  1.630E+03  0.000E+00  0.000E+00
   1   39   70     3    18    3.6998E+02 -9.2779E+00   3.7926E+02  0.000E+00  0.000E+00  0.000E+00  1.94601E+03  5.974E-03  3.000E+00  9.546E+02  0.000E+00  0.000E+00
   1   25   49     4     1    0.0000E+00 -1.4531E+02   1.4531E+02  0.000E+00  0.000E+00  0.000E+00  2.03500E+03  2.264E-03  3.000E+00  1.909E+03  0.000E+00  0.000E+00
   1   26   50     4     2    1.4531E+02 -9.9926E+01   2.4524E+02  0.000E+00  0.000E+00  0.000E+00  2.02600E+03  4.446E-03  3.000E+00  1.909E+03  0.000E+00  0.000E+00
   1   27   51     4     3    2.4524E+02 -8.4460E+01   3.2970E+02  0.000E+00  0.000E+00  0.000E+00  2.01901E+03  5.829E-03  3.000E+00  1.630E+03  0.000E+00  0.000E+00
   1   28   51     4     4    3.2970E+02 -1.0186E+02   4.3155E+02  0.000E+00  0.000E+00  0.000E+00  2.01401E+03  7.286E-03  3.000E+00  1.630E+03  0.000E+00  0.000E+00
   1   29   52     4     5    4.3155E+02 -6.2099E+01   4.9365E+02  0.000E+00  0.000E+00  0.000E+00  2.00901E+03  8.190E-03  3.000E+00  1.630E+03  0.000E+00  0.000E+00
   1   30   52     4     6    4.9365E+02 -2.9590E+01   5.2324E+02  0.000E+00  0.000E+00  0.000E+00  2.00401E+03  8.192E-03  3.000E+00  1.350E+03  0.000E+00  0.000E+00
   1   31   52     4     7    5.2324E+02 -3.7170E+01   5.6041E+02  0.000E+00  0.000E+00  0.000E+00  1.99901E+03  9.472E-03  3.000E+00  1.350E+03  0.000E+00  0.000E+00
   1   32   52     4     8    5.6041E+02 -1.2698E+01   5.7311E+02  0.000E+00  0.000E+00  0.000E+00  1.99701E+03  9.892E-03  3.000E+00  1.630E+03  0.000E+00  0.000E+00
   1   33   53     4     9    5.7311E+02 -1.7482E+00   5.7486E+02  0.000E+00  0.000E+00  0.000E+00  1.99101E+03  9.776E-03  3.000E+00  1.909E+03  0.000E+00  0.000E+00
   1   34   54     4    10    5.7486E+02  4.0097E+01   5.3476E+02  0.000E+00  0.000E+00  0.000E+00  1.98701E+03  9.886E-03  3.000E+00  1.909E+03  0.000E+00  0.000E+00
   1   35   55     4    11    5.3476E+02  5.1477E+01   4.8329E+02  0.000E+00  0.000E+00  0.000E+00  1.98201E+03  8.430E-03  3.000E+00  1.630E+03  0.000E+00  0.000E+00
   1   36   55     4    12    4.8329E+02 -6.1150E+01   5.4444E+02  0.000E+00  0.000E+00  0.000E+00  1.97601E+03  7.453E-03  3.000E+00  6.750E+02  0.000E+00  0.000E+00
   1   35   37     5     1    5.0686E+03 -6.8034E+01   5.1366E+03  0.000E+00  0.000E+00  0.000E+00  2.05403E+03  2.558E-02  3.000E+00  9.546E+02  0.000E+00  0.000E+00
   1   34   38     5     2    5.1366E+03 -1.4234E+02   5.2790E+03  0.000E+00  0.000E+00  0.000E+00  2.04603E+03  3.188E-02  3.000E+00  1.909E+03  0.000E+00  0.000E+00
   1   33   39     5     3    5.2790E+03 -2.5724E+02   5.5362E+03  0.000E+00  0.000E+00  0.000E+00  2.03804E+03  3.875E-02  3.000E+00  1.909E+03  0.000E+00  0.000E+00
   1   32   40     5     4    5.5362E+03  1.0282E+02   5.4334E+03  0.000E+00  0.000E+00  0.000E+00  2.03704E+03  3.861E-02  3.000E+00  1.630E+03  0.000E+00  0.000E+00
   1   32   41     5     5    5.4334E+03 -1.4330E+02   5.5767E+03  0.000E+00  0.000E+00  0.000E+00  2.03003E+03  3.238E-02  3.000E+00  1.350E+03  0.000E+00  0.000E+00
   1   32   42     5     6    5.5767E+03 -1.7571E+02   5.7524E+03  0.000E+00  0.000E+00  0.000E+00  2.02504E+03  3.873E-02  3.000E+00  1.350E+03  0.000E+00  0.000E+00
   1   32   43     5     7    5.7524E+03 -6.1873E+01   5.8143E+03  0.000E+00  0.000E+00  0.000E+00  2.02304E+03  4.345E-02  3.000E+00  1.630E+03  0.000E+00  0.000E+00
   1   33   44     5     8    5.8143E+03 -1.5664E+02   5.9709E+03  0.000E+00  0.000E+00  0.000E+00  2.01904E+03  4.400E-02  3.000E+00  1.909E+03  0.000E+00  0.000E+00
   1   34   45     5     9    5.9709E+03 -3.5686E+01   6.0066E+03  0.000E+00  0.000E+00  0.000E+00  2.01604E+03  4.070E-02  3.000E+00  1.630E+03  0.000E+00  0.000E+00
   1   34   46     5    10    6.0066E+03 -1.1287E+02   6.1195E+03  0.000E+00  0.000E+00  0.000E+00  2.01104E+03  3.741E-02  3.000E+00  1.350E+03  0.000E+00  0.000E+00
   1   34   47     5    11    6.1195E+03  3.6094E+00   6.1159E+03  0.000E+00  0.000E+00  0.000E+00  2.00703E+03  2.960E-02  3.000E+00  6.750E+02  0.000E+00  0.000E+00
   1   34   47     6     1    6.1383E+03  2.1326E+00   6.1362E+03  0.000E+00  0.000E+00  0.000E+00  2.00703E+03  2.741E-02  3.000E+00  6.750E+02  0.000E+00  0.000E+00
   1   34   48     6     2    6.1362E+03 -1.4205E+02   6.2783E+03  0.000E+00  0.000E+00  0.000E+00  2.00104E+03  3.595E-02  3.000E+00  1.630E+03  0.000E+00  0.000E+00
   1   35   49     6     3    6.2783E+03 -2.7141E+02   6.5497E+03  0.000E+00  0.000E+00  0.000E+00  1.99404E+03  3.855E-02  3.000E+00  1.630E+03  0.000E+00  0.000E+00
   1   35   50     6     4    6.5497E+03 -2.0395E+02   6.7536E+03  0.000E+00  0.000E+00  0.000E+00  1.99005E+03  4.717E-02  3.000E+00  1.350E+03  0.000E+00  0.000E+00
   1   35   51     6     5    6.7536E+03  2.6011E+01   6.7276E+03  0.000E+00  0.000E+00  0.000E+00  1.98905E+03  4.764E-02  3.000E+00  1.630E+03  0.000E+00  0.000E+00
   1   36   52     6     6    6.7276E+03 -1.1833E+02   6.8459E+03  0.000E+00  0.000E+00  0.000E+00  1.98404E+03  4.235E-02  3.000E+00  1.630E+03  0.000E+00  0.000E+00
   1   36   53     6     7    6.8459E+03 -2.3245E+02   7.0784E+03  0.000E+00  0.000E+00  0.000E+00  1.98005E+03  5.485E-02  3.000E+00  1.630E+03  0.000E+00  0.000E+00
   1   37   54     6     8    7.0784E+03 -3.2896E+01   7.1113E+03  0.000E+00  0.000E+00  0.000E+00  1.98006E+03  5.818E-02  3.000E+00  1.909E+03  0.000E+00  0.000E+00
   1   36   55     6     9    7.1113E+03 -5.1256E+01   7.1625E+03  0.000E+00  0.000E+00  0.000E+00  1.97604E+03  4.435E-02  3.000E+00  9.546E+02  0.000E+00  0.000E+00
   1   36   34     7     1    2.0982E+03 -5.3585E+01   2.1518E+03  0.000E+00  0.000E+00  0.000E+00  2.07701E+03  1.375E-02  3.000E+00  9.546E+02  0.000E+00  0.000E+00
   1   35   35     7     2    2.1518E+03 -1.1559E+02   2.2674E+03  0.000E+00  0.000E+00  0.000E+00  2.06702E+03  1.853E-02  3.000E+00  1.630E+03  0.000E+00  0.000E+00
   1   35   36     7     3    2.2674E+03  1.4019E+01   2.2534E+03  0.000E+00  0.000E+00  0.000E+00  2.06202E+03  1.853E-02  3.000E+00  1.350E+03  0.000E+00  0.000E+00
   1   35   37     7     4    2.2534E+03 -5.5773E+01   2.3092E+03  0.000E+00  0.000E+00  0.000E+00  2.05401E+03  1.422E-02  3.000E+00  6.750E+02  0.000E+00  0.000E+00
   1   52   49     8     1    0.0000E+00 -2.0209E+02   2.0209E+02  0.000E+00  0.000E+00  0.000E+00  2.12100E+03  2.844E-03  3.000E+00  1.909E+03  0.000E+00  0.000E+00
   1   51   48     8     2    2.0209E+02 -2.0905E+02   4.1114E+02  0.000E+00  0.000E+00  0.000E+00  2.11701E+03  8.833E-03  3.000E+00  1.909E+03  0.000E+00  0.000E+00
   1   50   47     8     3    4.1114E+02  9.7776E+01   3.1336E+02  0.000E+00  0.000E+00  0.000E+00  2.11701E+03  7.563E-03  3.000E+00  1.630E+03  9.775E+01  2.982E-02
   1   49   47     8     4    3.1336E+02 -2.2471E+02   5.3807E+02  0.000E+00  0.000E+00  0.000E+00  2.10901E+03  7.792E-03  3.000E+00  1.630E+03  0.000E+00  0.000E+00
   1   48   46     8     5    5.3807E+02  6.6659E-01   5.3740E+02  0.000E+00  0.000E+00  0.000E+00  2.10701E+03  1.180E-02  3.000E+00  1.630E+03  0.000E+00  0.000E+00
   1   47   46     8     6    5.3740E+02  9.4133E+01   4.4327E+02  0.000E+00  0.000E+00  0.000E+00  2.10501E+03  1.055E-02  3.000E+00  1.350E+03  0.000E+00  0.000E+00
   1   46   46     8     7    4.4327E+02  8.1000E+01   3.6227E+02  0.000E+00  0.000E+00  0.000E+00  2.10301E+03  8.303E-03  3.000E+00  1.350E+03  8.116E+01 -1.565E-01
   1   45   46     8     8    3.6227E+02  8.1000E+01   2.8127E+02  0.000E+00  0.000E+00  0.000E+00  2.09901E+03  5.895E-03  3.000E+00  1.350E+03  8.159E+01 -5.879E-01
   1   44   46     8     9    2.8127E+02  8.1000E+01   2.0027E+02  0.000E+00  0.000E+00  0.000E+00  2.09100E+03  4.315E-03  3.000E+00  1.350E+03  8.208E+01 -1.081E+00
   1   43   46     8    10    2.0027E+02  8.1000E+01   1.1927E+02  0.000E+00  0.000E+00  0.000E+00  2.08000E+03  3.374E-03  3.000E+00  1.350E+03  8.219E+01 -1.195E+00
   1   42   46     8    11    1.1927E+02  9.7776E+01   2.1495E+01  0.000E+00  0.000E+00  0.000E+00  2.07200E+03  2.150E-03  3.000E+00  1.630E+03  9.993E+01 -2.158E+00
   1   41   45     8    12    2.1495E+01  2.1495E+01   0.0000E+00  0.000E+00  0.000E+00  0.000E+00  2.06000E+03  2.450E-04  3.000E+00  1.630E+03  0.000E+00  0.000E+00
   1   40   45     8    13    0.0000E+00  0.0000E+00   0.0000E+00  0.000E+00  0.000E+00  0.000E+00  2.05400E+03  0.000E+00  3.000E+00  1.350E+03  0.000E+00  0.000E+00
   1   39   45     8    14    0.0000E+00  0.0000E+00   0.0000E+00  0.000E+00  0.000E+00  0.000E+00  2.04600E+03  0.000E+00  3.000E+00  1.350E+03  0.000E+00  0.000E+00
   1   38   45     8    15    0.0000E+00  0.0000E+00   0.0000E+00  0.000E+00  0.000E+00  0.000E+00  2.03500E+03  0.000E+00  3.000E+00  1.350E+03  0.000E+00  0.000E+00
   1   37   45     8    16    0.0000E+00  0.0000E+00   0.0000E+00  0.000E+00  0.000E+00  0.000E+00  2.02700E+03  0.000E+00  3.000E+00  1.630E+03  0.000E+00  0.000E+00
   1   36   46     8    17    0.0000E+00  0.0000E+00   0.0000E+00  0.000E+00  0.000E+00  0.000E+00  2.02100E+03  0.000E+00  3.000E+00  1.630E+03  0.000E+00  0.000E+00
   1   35   46     8    18    0.0000E+00  0.0000E+00   0.0000E+00  0.000E+00  0.000E+00  0.000E+00  2.01400E+03  0.000E+00  3.000E+00  1.630E+03  0.000E+00  0.000E+00
   1   34   47     8    19    0.0000E+00 -2.2483E+01   2.2483E+01  0.000E+00  0.000E+00  0.000E+00  2.00700E+03  6.998E-04  3.000E+00  9.546E+02  0.000E+00  0.000E+00
   1   37   26     9     1    0.0000E+00  0.0000E+00   0.0000E+00  0.000E+00  0.000E+00  0.000E+00  2.14700E+03  0.000E+00  3.000E+00  1.350E+03  0.000E+00  0.000E+00
   1   37   27     9     2    0.0000E+00 -3.2482E+01   3.2482E+01  0.000E+00  0.000E+00  0.000E+00  2.13400E+03  8.234E-04  3.000E+00  1.350E+03  0.000E+00  0.000E+00
   1   37   28     9     3    3.2482E+01 -1.2401E+02   1.5649E+02  0.000E+00  0.000E+00  0.000E+00  2.12500E+03  2.605E-03  3.000E+00  1.630E+03  0.000E+00  0.000E+00
   1   36   29     9     4    1.5649E+02  2.7905E+01   1.2858E+02  0.000E+00  0.000E+00  0.000E+00  2.11500E+03  3.388E-03  3.000E+00  1.630E+03  0.000E+00  0.000E+00
   1   36   30     9     5    1.2858E+02 -7.3424E+01   2.0201E+02  0.000E+00  0.000E+00  0.000E+00  2.10700E+03  3.560E-03  3.000E+00  1.350E+03  0.000E+00  0.000E+00
   1   36   31     9     6    2.0201E+02 -2.0082E+02   4.0282E+02  0.000E+00  0.000E+00  0.000E+00  2.09801E+03  5.209E-03  3.000E+00  1.350E+03  0.000E+00  0.000E+00
   1   36   32     9     7    4.0282E+02 -1.5269E+02   5.5551E+02  0.000E+00  0.000E+00  0.000E+00  2.09101E+03  7.147E-03  3.000E+00  1.350E+03  0.000E+00  0.000E+00
   1   36   33     9     8    5.5551E+02 -1.4574E+02   7.0126E+02  0.000E+00  0.000E+00  0.000E+00  2.08401E+03  8.409E-03  3.000E+00  1.350E+03  0.000E+00  0.000E+00
   1   36   34     9     9    7.0126E+02 -4.2440E+01   7.4370E+02  0.000E+00  0.000E+00  0.000E+00  2.07701E+03  7.006E-03  3.000E+00  6.750E+02  0.000E+00  0.000E+00
   1   58   37    10     1    0.0000E+00 -3.9771E+01   3.9771E+01  0.000E+00  0.000E+00  0.000E+00  2.15000E+03  1.543E-03  3.000E+00  1.350E+03  0.000E+00  0.000E+00
   1   57   37    10     2    3.9771E+01 -7.1082E+01   1.1085E+02  0.000E+00  0.000E+00  0.000E+00  2.14700E+03  3.068E-03  3.000E+00  1.630E+03  0.000E+00  0.000E+00
   1   56   38    10     3    1.1085E+02 -3.3804E+00   1.1423E+02  0.000E+00  0.000E+00  0.000E+00  2.14300E+03  3.620E-03  3.000E+00  1.630E+03  0.000E+00  0.000E+00
   1   55   38    10     4    1.1423E+02 -1.7518E+02   2.8941E+02  0.000E+00  0.000E+00  0.000E+00  2.13801E+03  5.031E-03  3.000E+00  1.350E+03  0.000E+00  0.000E+00
   1   54   38    10     5    2.8941E+02 -1.1833E+02   4.0775E+02  0.000E+00  0.000E+00  0.000E+00  2.13501E+03  7.613E-03  3.000E+00  1.350E+03  0.000E+00  0.000E+00
   1   53   38    10     6    4.0775E+02 -1.1653E+02   5.2427E+02  0.000E+00  0.000E+00  0.000E+00  2.13201E+03  9.062E-03  3.000E+00  1.350E+03  0.000E+00  0.000E+00
   1   52   38    10     7    5.2427E+02 -1.7411E+02   6.9838E+02  0.000E+00  0.000E+00  0.000E+00  2.12901E+03  1.274E-02  3.000E+00  1.630E+03  0.000E+00  0.000E+00
   1   51   39    10     8    6.9838E+02  4.0989E+00   6.9428E+02  0.000E+00  0.000E+00  0.000E+00  2.12801E+03  1.378E-02  3.000E+00  1.630E+03  0.000E+00  0.000E+00
   1   50   39    10     9    6.9428E+02 -8.9293E+01   7.8358E+02  0.000E+00  0.000E+00  0.000E+00  2.12501E+03  1.207E-02  3.000E+00  1.630E+03  0.000E+00  0.000E+00
   1   49   38    10    10    7.8358E+02 -1.5714E+02   9.4072E+02  0.000E+00  0.000E+00  0.000E+00  2.12101E+03  1.389E-02  3.000E+00  1.909E+03  0.000E+00  0.000E+00
   1   48   37    10    11    9.4072E+02  1.5425E+01   9.2529E+02  0.000E+00  0.000E+00  0.000E+00  2.11801E+03  1.239E-02  3.000E+00  1.909E+03  0.000E+00  0.000E+00
   1   47   36    10    12    9.2529E+02 -3.4509E+02   1.2704E+03  0.000E+00  0.000E+00  0.000E+00  2.10901E+03  1.302E-02  3.000E+00  1.630E+03  0.000E+00  0.000E+00
   1   46   36    10    13    1.2704E+03 -1.3996E+02   1.4103E+03  0.000E+00  0.000E+00  0.000E+00  2.10602E+03  1.631E-02  3.000E+00  1.350E+03  0.000E+00  0.000E+00
   1   45   36    10    14    1.4103E+03 -1.7442E+02   1.5848E+03  0.000E+00  0.000E+00  0.000E+00  2.10202E+03  1.743E-02  3.000E+00  1.350E+03  0.000E+00  0.000E+00
   1   44   36    10    15    1.5848E+03 -1.0132E+02   1.6861E+03  0.000E+00  0.000E+00  0.000E+00  2.09902E+03  1.925E-02  3.000E+00  1.350E+03  0.000E+00  0.000E+00
   1   43   36    10    16    1.6861E+03 -5.3137E+00   1.6914E+03  0.000E+00  0.000E+00  0.000E+00  2.09602E+03  1.838E-02  3.000E+00  1.630E+03  0.000E+00  0.000E+00
   1   42   37    10    17    1.6914E+03  9.7776E+01   1.5936E+03  0.000E+00  0.000E+00  0.000E+00  2.09002E+03  1.521E-02  3.000E+00  1.630E+03  9.793E+01 -1.541E-01
   1   41   37    10    18    1.5936E+03 -2.3299E+02   1.8266E+03  0.000E+00  0.000E+00  0.000E+00  2.08001E+03  1.473E-02  3.000E+00  1.350E+03  0.000E+00  0.000E+00
   1   40   37    10    19    1.8266E+03 -3.3324E+02   2.1598E+03  0.000E+00  0.000E+00  0.000E+00  2.07402E+03  2.031E-02  3.000E+00  1.630E+03  0.000E+00  0.000E+00
   1   39   38    10    20    2.1598E+03 -3.7913E+01   2.1978E+03  0.000E+00  0.000E+00  0.000E+00  2.07102E+03  2.310E-02  3.000E+00  1.630E+03  0.000E+00  0.000E+00
   1   38   38    10    21    2.1978E+03  8.5674E+00   2.1892E+03  0.000E+00  0.000E+00  0.000E+00  2.06702E+03  2.084E-02  3.000E+00  1.630E+03  0.000E+00  0.000E+00
   1   37   37    10    22    2.1892E+03 -3.0292E+02   2.4921E+03  0.000E+00  0.000E+00  0.000E+00  2.06102E+03  2.167E-02  3.000E+00  1.630E+03  0.000E+00  0.000E+00
   1   36   37    10    23    2.4921E+03 -2.1391E+02   2.7060E+03  0.000E+00  0.000E+00  0.000E+00  2.05702E+03  2.427E-02  3.000E+00  1.350E+03  0.000E+00  0.000E+00
   1   35   37    10    24    2.7060E+03 -5.3402E+01   2.7594E+03  0.000E+00  0.000E+00  0.000E+00  2.05402E+03  1.774E-02  3.000E+00  6.750E+02  0.000E+00  0.000E+00
   1   36   55    11     1    7.7070E+03 -4.0599E+01   7.7476E+03  0.000E+00  0.000E+00  0.000E+00  1.97604E+03  3.790E-02  3.000E+00  6.750E+02  0.000E+00  0.000E+00
   1   36   56    11     2    7.7476E+03 -5.0911E+01   7.7985E+03  0.000E+00  0.000E+00  0.000E+00  1.97506E+03  6.388E-02  3.000E+00  1.630E+03  0.000E+00  0.000E+00
   1   37   57    11     3    7.7985E+03 -1.3088E+02   7.9294E+03  0.000E+00  0.000E+00  0.000E+00  1.97306E+03  6.433E-02  3.000E+00  1.630E+03  0.000E+00  0.000E+00
   1   37   58    11     4    7.9294E+03 -8.2563E+01   8.0119E+03  0.000E+00  0.000E+00  0.000E+00  1.97209E+03  8.522E-02  3.000E+00  1.350E+03  0.000E+00  0.000E+00
   1   37   59    11     5    8.0119E+03  2.4294E+00   8.0095E+03  0.000E+00  0.000E+00  0.000E+00  1.97207E+03  6.943E-02  3.000E+00  1.350E+03  0.000E+00  0.000E+00
   1   37   60    11     6    8.0095E+03 -2.4298E+01   8.0338E+03  0.000E+00  0.000E+00  0.000E+00  1.97006E+03  5.585E-02  3.000E+00  1.630E+03  0.000E+00  0.000E+00
   1   38   61    11     7    8.0338E+03 -7.5603E+01   8.1094E+03  0.000E+00  0.000E+00  0.000E+00  1.96705E+03  5.068E-02  3.000E+00  1.630E+03  0.000E+00  0.000E+00
   1   38   62    11     8    8.1094E+03 -9.5114E+01   8.2045E+03  0.000E+00  0.000E+00  0.000E+00  1.96305E+03  4.630E-02  3.000E+00  6.750E+02  0.000E+00  0.000E+00
   1   51   11    12     1    0.0000E+00 -4.5233E+02   4.5233E+02  0.000E+00  0.000E+00  0.000E+00  2.38700E+03  4.414E-03  3.000E+00  1.909E+03  0.000E+00  0.000E+00
   1   50   12    12     2    4.5233E+02 -6.3535E+01   5.1587E+02  0.000E+00  0.000E+00  0.000E+00  2.37501E+03  6.644E-03  3.000E+00  1.630E+03  0.000E+00  0.000E+00
   1   49   12    12     3    5.1587E+02 -3.9226E+02   9.0813E+02  0.000E+00  0.000E+00  0.000E+00  2.36501E+03  8.750E-03  3.000E+00  1.630E+03  0.000E+00  0.000E+00
   1   48   13    12     4    9.0813E+02 -1.8666E+02   1.0948E+03  0.000E+00  0.000E+00  0.000E+00  2.35601E+03  1.153E-02  3.000E+00  1.630E+03  0.000E+00  0.000E+00
   1   48   14    12     5    1.0948E+03 -1.6416E+02   1.2590E+03  0.000E+00  0.000E+00  0.000E+00  2.35001E+03  1.246E-02  3.000E+00  1.630E+03  0.000E+00  0.000E+00
   1   47   15    12     6    1.2590E+03 -1.6713E+02   1.4261E+03  0.000E+00  0.000E+00  0.000E+00  2.34001E+03  1.374E-02  3.000E+00  1.630E+03  0.000E+00  0.000E+00
   1   47   16    12     7    1.4261E+03 -1.3248E+02   1.5586E+03  0.000E+00  0.000E+00  0.000E+00  2.33502E+03  1.607E-02  3.000E+00  1.630E+03  0.000E+00  0.000E+00
   1   46   17    12     8    1.5586E+03  7.5093E+01   1.4835E+03  0.000E+00  0.000E+00  0.000E+00  2.32902E+03  1.512E-02  3.000E+00  1.630E+03  0.000E+00  0.000E+00
   1   46   18    12     9    1.4835E+03  1.6597E+02   1.3175E+03  0.000E+00  0.000E+00  0.000E+00  2.32101E+03  1.172E-02  3.000E+00  1.350E+03  0.000E+00  0.000E+00
   1   46   19    12    10    1.3175E+03 -1.6548E+02   1.4830E+03  0.000E+00  0.000E+00  0.000E+00  2.30601E+03  1.332E-02  3.000E+00  1.350E+03  0.000E+00  0.000E+00
   1   46   20    12    11    1.4830E+03  9.7776E+01   1.3852E+03  0.000E+00  0.000E+00  0.000E+00  2.30601E+03  1.139E-02  3.000E+00  1.630E+03  9.780E+01 -2.220E-02
   1   45   21    12    12    1.3852E+03 -5.7124E+01   1.4423E+03  0.000E+00  0.000E+00  0.000E+00  2.27401E+03  1.001E-02  3.000E+00  1.909E+03  0.000E+00  0.000E+00
   1   44   22    12    13    1.4423E+03 -1.4745E+02   1.5898E+03  0.000E+00  0.000E+00  0.000E+00  2.25001E+03  1.130E-02  3.000E+00  1.909E+03  0.000E+00  0.000E+00
   1   43   23    12    14    1.5898E+03  1.4953E+02   1.4403E+03  0.000E+00  0.000E+00  0.000E+00  2.23101E+03  1.138E-02  3.000E+00  1.909E+03  0.000E+00  0.000E+00
   1   42   24    12    15    1.4403E+03 -7.8290E+01   1.5185E+03  0.000E+00  0.000E+00  0.000E+00  2.20801E+03  1.172E-02  3.000E+00  1.630E+03  0.000E+00  0.000E+00
   1   42   25    12    16    1.5185E+03 -1.7572E+01   1.5361E+03  0.000E+00  0.000E+00  0.000E+00  2.20001E+03  1.287E-02  3.000E+00  1.350E+03  0.000E+00  0.000E+00
   1   42   26    12    17    1.5361E+03  1.2335E+02   1.4128E+03  0.000E+00  0.000E+00  0.000E+00  2.18801E+03  1.116E-02  3.000E+00  1.350E+03  0.000E+00  0.000E+00
   1   42   27    12    18    1.4128E+03 -2.6436E+02   1.6771E+03  0.000E+00  0.000E+00  0.000E+00  2.17001E+03  1.160E-02  3.000E+00  1.350E+03  0.000E+00  0.000E+00
   1   42   28    12    19    1.6771E+03 -9.1739E+01   1.7689E+03  0.000E+00  0.000E+00  0.000E+00  2.15901E+03  1.324E-02  3.000E+00  1.630E+03  0.000E+00  0.000E+00
   1   41   29    12    20    1.7689E+03  1.5194E+02   1.6169E+03  0.000E+00  0.000E+00  0.000E+00  2.14201E+03  1.320E-02  3.000E+00  1.909E+03  0.000E+00  0.000E+00
   1   40   30    12    21    1.6169E+03  7.2291E+01   1.5446E+03  0.000E+00  0.000E+00  0.000E+00  2.12701E+03  1.333E-02  3.000E+00  1.909E+03  0.000E+00  0.000E+00
   1   39   31    12    22    1.5446E+03  1.1455E+02   1.4301E+03  0.000E+00  0.000E+00  0.000E+00  2.11501E+03  1.331E-02  3.000E+00  1.909E+03  1.152E+02 -6.210E-01
   1   38   32    12    23    1.4301E+03  1.1455E+02   1.3155E+03  0.000E+00  0.000E+00  0.000E+00  2.10301E+03  1.238E-02  3.000E+00  1.909E+03  1.156E+02 -1.068E+00
   1   37   33    12    24    1.3155E+03  1.7798E+01   1.2977E+03  0.000E+00  0.000E+00  0.000E+00  2.08901E+03  1.202E-02  3.000E+00  1.909E+03  0.000E+00  0.000E+00
   1   36   34    12    25    1.2977E+03 -5.6818E+01   1.3546E+03  0.000E+00  0.000E+00  0.000E+00  2.07701E+03  1.036E-02  3.000E+00  9.546E+02  0.000E+00  0.000E+00
   1   38   62    13     1    8.3808E+03 -1.0215E+02   8.4829E+03  0.000E+00  0.000E+00  0.000E+00  1.96304E+03  3.588E-02  3.000E+00  6.750E+02  0.000E+00  0.000E+00
   1   38   63    13     2    8.4829E+03 -6.4116E+00   8.4893E+03  0.000E+00  0.000E+00  0.000E+00  1.96535E+03  2.346E+00  3.000E+00  1.350E+03  0.000E+00  0.000E+00
   1   38   64    13     3    8.4893E+03  1.8797E+01   8.4705E+03  0.000E+00  0.000E+00  0.000E+00  1.96534E+03  2.345E+00  3.000E+00  1.350E+03  0.000E+00  0.000E+00
   1   38   65    13     4    8.4705E+03 -4.2114E+01   8.5126E+03  0.000E+00  0.000E+00  0.000E+00  1.96306E+03  6.366E-02  3.000E+00  1.350E+03  0.000E+00  0.000E+00
   1   38   66    13     5    8.5126E+03 -8.3996E+01   8.5966E+03  0.000E+00  0.000E+00  0.000E+00  1.96005E+03  5.486E-02  3.000E+00  1.350E+03  0.000E+00  0.000E+00
   1   38   67    13     6    8.5966E+03 -5.3595E+01   8.6502E+03  0.000E+00  0.000E+00  0.000E+00  1.95805E+03  5.272E-02  3.000E+00  1.630E+03  0.000E+00  0.000E+00
   1   39   68    13     7    8.6502E+03 -2.7092E+01   8.6773E+03  0.000E+00  0.000E+00  0.000E+00  1.95305E+03  4.751E-02  3.000E+00  1.630E+03  0.000E+00  0.000E+00
   1   39   69    13     8    8.6773E+03 -8.7677E+01   8.7650E+03  0.000E+00  0.000E+00  0.000E+00  1.94805E+03  5.017E-02  3.000E+00  1.350E+03  0.000E+00  0.000E+00
   1   39   70    13     9    8.7650E+03  1.8283E+01   8.7467E+03  0.000E+00  0.000E+00  0.000E+00  1.94604E+03  4.278E-02  3.000E+00  6.750E+02  0.000E+00  0.000E+00
   1   46   61    14     1    0.0000E+00  0.0000E+00   0.0000E+00  0.000E+00  0.000E+00  0.000E+00  2.01700E+03  0.000E+00  3.000E+00  1.350E+03  0.000E+00  0.000E+00
   1   45   61    14     2    0.0000E+00  0.0000E+00   0.0000E+00  0.000E+00  0.000E+00  0.000E+00  2.01000E+03  0.000E+00  3.000E+00  1.350E+03  0.000E+00  0.000E+00
   1   44   61    14     3    0.0000E+00  0.0000E+00   0.0000E+00  0.000E+00  0.000E+00  0.000E+00  2.00600E+03  0.000E+00  3.000E+00  1.350E+03  0.000E+00  0.000E+00
   1   43   61    14     4    0.0000E+00  0.0000E+00   0.0000E+00  0.000E+00  0.000E+00  0.000E+00  1.99900E+03  0.000E+00  3.000E+00  1.350E+03  0.000E+00  0.000E+00
   1   42   61    14     5    0.0000E+00  0.0000E+00   0.0000E+00  0.000E+00  0.000E+00  0.000E+00  1.99300E+03  0.000E+00  3.000E+00  1.350E+03  0.000E+00  0.000E+00
   1   41   61    14     6    0.0000E+00  0.0000E+00   0.0000E+00  0.000E+00  0.000E+00  0.000E+00  1.98500E+03  0.000E+00  3.000E+00  1.350E+03  0.000E+00  0.000E+00
   1   40   61    14     7    0.0000E+00  0.0000E+00   0.0000E+00  0.000E+00  0.000E+00  0.000E+00  1.97800E+03  0.000E+00  3.000E+00  1.350E+03  0.000E+00  0.000E+00
   1   39   61    14     8    0.0000E+00  0.0000E+00   0.0000E+00  0.000E+00  0.000E+00  0.000E+00  1.97300E+03  0.000E+00  3.000E+00  1.630E+03  0.000E+00  0.000E+00
   1   38   62    14     9    0.0000E+00 -1.7625E+02   1.7625E+02  0.000E+00  0.000E+00  0.000E+00  1.96300E+03  2.583E-03  3.000E+00  9.546E+02  0.000E+00  0.000E+00
   1   39   70    15     1    9.1260E+03  1.4076E+01   9.1119E+03  0.000E+00  0.000E+00  0.000E+00  1.94604E+03  3.655E-02  3.000E+00  6.750E+02  0.000E+00  0.000E+00
   1   39   71    15     2    9.1119E+03 -1.0960E+02   9.2215E+03  0.000E+00  0.000E+00  0.000E+00  1.94206E+03  6.050E-02  3.000E+00  1.630E+03  0.000E+00  0.000E+00
   1   40   72    15     3    9.2215E+03 -2.5661E+01   9.2472E+03  0.000E+00  0.000E+00  0.000E+00  1.94106E+03  6.498E-02  3.000E+00  1.630E+03  0.000E+00  0.000E+00
   1   40   73    15     4    9.2472E+03 -4.9286E+01   9.2964E+03  0.000E+00  0.000E+00  0.000E+00  1.93806E+03  5.757E-02  3.000E+00  1.350E+03  0.000E+00  0.000E+00
   1   40   74    15     5    9.2964E+03 -3.3301E+01   9.3297E+03  0.000E+00  0.000E+00  0.000E+00  1.93606E+03  6.172E-02  3.000E+00  1.350E+03  0.000E+00  0.000E+00
   1   40   75    15     6    9.3297E+03 -1.4190E+00   9.3312E+03  0.000E+00  0.000E+00  0.000E+00  1.93405E+03  5.472E-02  3.000E+00  6.750E+02  0.000E+00  0.000E+00
   1   40   75    16     1    1.0155E+04 -5.0095E+00   1.0160E+04  0.000E+00  0.000E+00  0.000E+00  1.93405E+03  4.940E-02  3.000E+00  6.750E+02  0.000E+00  0.000E+00
   1   40   76    16     2    1.0160E+04  0.0000E+00   1.0160E+04  0.000E+00  0.000E+00  0.000E+00  1.93307E+03  7.090E-02  3.000E+00  0.000E+00  0.000E+00  0.000E+00
   1   55   73    17     1    0.0000E+00  0.0000E+00   0.0000E+00  0.000E+00  0.000E+00  0.000E+00  2.04100E+03  0.000E+00  3.000E+00  1.350E+03  0.000E+00  0.000E+00
   1   54   73    17     2    0.0000E+00  0.0000E+00   0.0000E+00  0.000E+00  0.000E+00  0.000E+00  2.02900E+03  0.000E+00  3.000E+00  1.350E+03  0.000E+00  0.000E+00
   1   53   73    17     3    0.0000E+00  0.0000E+00   0.0000E+00  0.000E+00  0.000E+00  0.000E+00  2.01700E+03  0.000E+00  3.000E+00  1.350E+03  0.000E+00  0.000E+00
   1   52   73    17     4    0.0000E+00 -4.5432E+01   4.5432E+01  0.000E+00  0.000E+00  0.000E+00  2.01000E+03  1.110E-03  3.000E+00  1.630E+03  0.000E+00  0.000E+00
   1   51   72    17     5    4.5432E+01 -2.3962E+02   2.8505E+02  0.000E+00  0.000E+00  0.000E+00  1.99800E+03  3.766E-03  3.000E+00  1.630E+03  0.000E+00  0.000E+00
   1   50   72    17     6    2.8505E+02 -1.7852E+01   3.0290E+02  0.000E+00  0.000E+00  0.000E+00  1.99301E+03  5.583E-03  3.000E+00  1.350E+03  0.000E+00  0.000E+00
   1   49   72    17     7    3.0290E+02 -7.4971E+01   3.7787E+02  0.000E+00  0.000E+00  0.000E+00  1.98601E+03  5.821E-03  3.000E+00  1.350E+03  0.000E+00  0.000E+00
   1   48   72    17     8    3.7787E+02 -1.0050E+02   4.7838E+02  0.000E+00  0.000E+00  0.000E+00  1.97901E+03  6.680E-03  3.000E+00  1.350E+03  0.000E+00  0.000E+00
   1   47   72    17     9    4.7838E+02 -1.8654E+02   6.6492E+02  0.000E+00  0.000E+00  0.000E+00  1.97201E+03  8.124E-03  3.000E+00  1.350E+03  0.000E+00  0.000E+00
   1   46   72    17    10    6.6492E+02 -1.7301E+01   6.8222E+02  0.000E+00  0.000E+00  0.000E+00  1.96601E+03  9.182E-03  3.000E+00  1.350E+03  0.000E+00  0.000E+00
   1   45   72    17    11    6.8222E+02 -4.7320E+00   6.8695E+02  0.000E+00  0.000E+00  0.000E+00  1.96001E+03  9.367E-03  3.000E+00  1.630E+03  0.000E+00  0.000E+00
   1   44   73    17    12    6.8695E+02 -2.2705E+01   7.0965E+02  0.000E+00  0.000E+00  0.000E+00  1.95201E+03  9.692E-03  3.000E+00  1.630E+03  0.000E+00  0.000E+00
   1   43   73    17    13    7.0965E+02 -4.2216E+01   7.5187E+02  0.000E+00  0.000E+00  0.000E+00  1.94701E+03  1.089E-02  3.000E+00  1.350E+03  0.000E+00  0.000E+00
   1   42   73    17    14    7.5187E+02  4.0647E+00   7.4781E+02  0.000E+00  0.000E+00  0.000E+00  1.94401E+03  1.129E-02  3.000E+00  1.630E+03  0.000E+00  0.000E+00
   1   41   74    17    15    7.4781E+02 -3.3505E+01   7.8131E+02  0.000E+00  0.000E+00  0.000E+00  1.93801E+03  1.161E-02  3.000E+00  1.909E+03  0.000E+00  0.000E+00
   1   40   75    17    16    7.8131E+02 -4.2826E+01   8.2414E+02  0.000E+00  0.000E+00  0.000E+00  1.93401E+03  1.195E-02  3.000E+00  9.546E+02  0.000E+00  0.000E+00
   1   37   55    18     1    0.0000E+00  0.0000E+00   0.0000E+00  0.000E+00  0.000E+00  0.000E+00  2.00700E+03  0.000E+00  3.000E+00  1.630E+03  0.000E+00  0.000E+00
   1   36   54    19     1    0.0000E+00  0.0000E+00   0.0000E+00  0.000E+00  0.000E+00  0.000E+00  2.00700E+03  0.000E+00  3.000E+00  1.630E+03  0.000E+00  0.000E+00



1
  VOLUMETRIC BUDGET FOR UNSATURATED ZONE BENEATH STREAMS AT END OF TIME STEP     1 STRESS PERIOD   3
  ------------------------------------------------------------------------------------------------

    CUMULATIVE VOLUMES             L**3    RATES FOR THIS TIME STEP         L**3/T
    ------------------                     ------------------------


          STREAM LOSS =        32835.9375            STREAM LOSS =         1234.8398
    CHANGE IN STORAGE =          547.0597      CHANGE IN STORAGE =           -8.8111
       RECHARGE TO GW =        32288.9453         RECHARGE TO GW =         1243.6510

             TOTAL IN =        32835.9375               TOTAL IN =         1243.6509

            TOTAL OUT =        32836.0039              TOTAL OUT =         1243.6510

             IN - OUT =       -6.6406E-02               IN - OUT =       -1.2207E-04

  PERCENT DISCREPANCY =           -0.00      PERCENT DISCREPANCY =            -0.00



 ***WARNING***NUZTOP IS 3 AND ALL LAYERS  IN ROW           39  AND COLUMN           76  ARE INACTIVE.
 UNSATURATED FLOW WILL NOT BE ADDED TO ANY LAYER-- SOME WATER MAY FLOW PAST LOWEST LAYER
 ***WARNING***NUZTOP IS 3 AND ALL LAYERS  IN ROW           40  AND COLUMN           76  ARE INACTIVE.
 UNSATURATED FLOW WILL NOT BE ADDED TO ANY LAYER-- SOME WATER MAY FLOW PAST LOWEST LAYER


UNSATURATED ZONE PACKAGE VOLUMETRIC BUDGET FOR  TIME STEP     1 STRESS PERIOD    3
  ------------------------------------------------------------------------------



     CUMULATIVE VOLUMES      L**3       RATES FOR THIS TIME STEP      L**3/T
     ------------------                 ------------------------

           IN:                                      IN:
           ---                                      ---
        INFILTRATION =       26653.0419          INFILTRATION =       0.0000E+00

          OUT:                                     OUT:
          ----                                     ----
              UZF ET =      653680.4585                UZF ET =         121.3624
        UZF RECHARGE =      743958.9974          UZF RECHARGE =       20111.2755

            IN - OUT =    -1370986.4140              IN - OUT =      -20232.6379

          STORAGE:                                 STORAGE:
          --------                                 --------
      STORAGE CHANGE =    -1369022.6215        STORAGE CHANGE =      -20232.3449

 PERCENT DISCREPANCY IS DIFFERENCE BETWEEN IN-OUT MINUS CHANGE IN STORAGE
 DIVIDED BY THE AVERAGE OF IN AND OUT TIMES 100

 PERCENT DISCREPANCY =          -0.04     PERCENT DISCREPANCY =          -0.00








        GW IRRIGATION     PERIOD    3   STEP   1

1
  VOLUMETRIC BUDGET FOR AGRICULTURAL FIELDS AT  END OF TIME STEP    1, STRESS PERIOD   3
  ------------------------------------------------------------------------------

     CUMULATIVE VOLUMES      L**3       RATES FOR THIS TIME STEP      L**3/T
     ------------------                 ------------------------

           IN:                                      IN:
           ---                                      ---
               AG WELLS  =           0.0000                 AG WELLS  =          -0.0000
      DIVERSION SEGMENTS =           0.0000        DIVERSION SEGMENTS =           0.0000
       IRRIGATION PONDS  =           0.0000         IRRIGATION PONDS  =           0.0000
           GW IRRIGATION =           0.0000             GW IRRIGATION =           0.0000
           SW IRRIGATION =           0.0000             SW IRRIGATION =           0.0000
        SYSTEM LOSSES GW =           0.0000          SYSTEM LOSSES GW =           0.0000
        SYSTEM LOSSES SW =           0.0000          SYSTEM LOSSES SW =          -0.0000

                TOTAL IN =           0.0000                  TOTAL IN =           0.0000

          OUT:                                     OUT:
          ----                                     ----
               AG WELLS  =           0.0000                 AG WELLS  =           0.0000
      DIVERSION SEGMENTS =           0.0000        DIVERSION SEGMENTS =           0.0000
       IRRIGATION PONDS  =           0.0000         IRRIGATION PONDS  =           0.0000
           GW IRRIGATION =           0.0000             GW IRRIGATION =           0.0000
           SW IRRIGATION =           0.0000             SW IRRIGATION =           0.0000
        SYSTEM LOSSES GW =           0.0000          SYSTEM LOSSES GW =           0.0000
        SYSTEM LOSSES SW =           0.0000          SYSTEM LOSSES SW =           0.0000

               TOTAL OUT =           0.0000                 TOTAL OUT =           0.0000

                IN - OUT =           0.0000                  IN - OUT =           0.0000

     PERCENT DISCREPANCY =           0.00         PERCENT DISCREPANCY =           0.00




 HEAD WILL BE SAVED ON UNIT   58 AT END OF TIME STEP    1, STRESS PERIOD    3
1
  VOLUMETRIC BUDGET FOR ENTIRE MODEL AT END OF TIME STEP    1, STRESS PERIOD   3
  ------------------------------------------------------------------------------

     CUMULATIVE VOLUMES      L**3       RATES FOR THIS TIME STEP      L**3/T
     ------------------                 ------------------------

           IN:                                      IN:
           ---                                      ---
             STORAGE     =       34606.6523               STORAGE     =        1736.7255
       CONSTANT HEAD     =           0.0000         CONSTANT HEAD     =           0.0000
      STREAM LEAKAGE     =       99269.4297        STREAM LEAKAGE     =        2545.3103
        UZF RECHARGE     =      743973.1875          UZF RECHARGE     =       20111.2793
               GW ET     =           0.0000                 GW ET     =           0.0000
     SURFACE LEAKAGE     =           0.0000       SURFACE LEAKAGE     =           0.0000
           AG WELLS      =           0.0000             AG WELLS      =           0.0000

                TOTAL IN =      877849.2500                  TOTAL IN =       24393.3145

          OUT:                                     OUT:
          ----                                     ----
             STORAGE     =      325898.3438               STORAGE     =       10837.9258
       CONSTANT HEAD     =        1193.2701         CONSTANT HEAD     =          36.1413
      STREAM LEAKAGE     =      358847.9062        STREAM LEAKAGE     =       12692.4639
        UZF RECHARGE     =           0.0000          UZF RECHARGE     =           0.0000
               GW ET     =      190023.2188                 GW ET     =         745.2969
     SURFACE LEAKAGE     =        1802.9900       SURFACE LEAKAGE     =          79.4328
           AG WELLS      =           0.0000             AG WELLS      =           0.0000

               TOTAL OUT =      877765.7500                 TOTAL OUT =       24391.2617

                IN - OUT =          83.5000                  IN - OUT =           2.0527

     PERCENT DISCREPANCY =           0.01         PERCENT DISCREPANCY =           0.01






         TIME SUMMARY AT END OF TIME STEP    1 IN STRESS PERIOD    3
                    SECONDS     MINUTES      HOURS       DAYS        YEARS
                    -----------------------------------------------------------
   TIME STEP LENGTH  86400.      1440.0      24.000      1.0000     2.73785E-03
 STRESS PERIOD TIME  86400.      1440.0      24.000      1.0000     2.73785E-03
         TOTAL TIME 2.85120E+06  47520.      792.00      33.000     9.03491E-02
1
                                                   Max.-Head-Change                         Max.-Flux-Residual
  Residual-Control   Outer-Iter.   Inner-Iter.     Column Row Layer    Maximum-Head-Change  Column Row Layer    Maximum-Flux-Residual          L2-NORM 
          0                 1           4            30   27     1       0.1523242638E+01      69   28    1         0.7939225446E+02      0.4458468543E+03
          0                 2           3            67   47     1       0.6715663928E+00      69   28    1         0.2110119701E+02      0.7471210708E+02
          0                 3           2             5   57     1       0.8018729511E-02      64   38    1         0.6335944594E+01      0.2406323756E+02
          0                 4           2            63   38     1       0.5438300732E-02      63   38    1         0.7681681466E+01      0.1354407318E+02
          0                 5           2            64   38     1       0.2421282481E-02      64   38    1         0.3428220152E+01      0.5425093754E+01
          0                 6           1             5   57     1       0.8886423716E-03      64   38    1         0.1010047041E+01      0.1867858755E+01

    ------------------------------------------------
       NWT REQUIRED            6 OUTER ITERATIONS 
       AND A TOTAL OF         14 INNER ITERATIONS.
    ------------------------------------------------

 NO OUTPUT CONTROL FOR STRESS PERIOD    3   TIME STEP    2
 ***WARNING***NUZTOP IS 3 AND ALL LAYERS  IN ROW           39  AND COLUMN           76  ARE INACTIVE.
 UNSATURATED FLOW WILL NOT BE ADDED TO ANY LAYER-- SOME WATER MAY FLOW PAST LOWEST LAYER
 ***WARNING***NUZTOP IS 3 AND ALL LAYERS  IN ROW           40  AND COLUMN           76  ARE INACTIVE.
 UNSATURATED FLOW WILL NOT BE ADDED TO ANY LAYER-- SOME WATER MAY FLOW PAST LOWEST LAYER
                                                   Max.-Head-Change                         Max.-Flux-Residual
  Residual-Control   Outer-Iter.   Inner-Iter.     Column Row Layer    Maximum-Head-Change  Column Row Layer    Maximum-Flux-Residual          L2-NORM 
          0                 1           4            48   20     1       0.1261015720E+01      69   28    1         0.7620521787E+02      0.4280448293E+03
          0                 2           5            24   34     1       0.2028974204E+01      37   62    1         0.3472549970E+02      0.9220216752E+02
          0                 3           3            25   34     1       0.3169118150E-01      64   38    1        -0.7587802408E+01      0.2535279767E+02
          0                 4           2            64   38     1      -0.3726556517E-02      64   38    1        -0.5260604528E+01      0.1127457000E+02
          0                 5           2             5   57     1       0.1741853918E-02      64   38    1        -0.2018845799E+01      0.4244388148E+01
          0                 6           1             5   57     1       0.8362688513E-03       5   57    1         0.5531135548E+00      0.1593983836E+01

    ------------------------------------------------
       NWT REQUIRED            6 OUTER ITERATIONS 
       AND A TOTAL OF         17 INNER ITERATIONS.
    ------------------------------------------------

 NO OUTPUT CONTROL FOR STRESS PERIOD    3   TIME STEP    3
 ***WARNING***NUZTOP IS 3 AND ALL LAYERS  IN ROW           39  AND COLUMN           76  ARE INACTIVE.
 UNSATURATED FLOW WILL NOT BE ADDED TO ANY LAYER-- SOME WATER MAY FLOW PAST LOWEST LAYER
 ***WARNING***NUZTOP IS 3 AND ALL LAYERS  IN ROW           40  AND COLUMN           76  ARE INACTIVE.
 UNSATURATED FLOW WILL NOT BE ADDED TO ANY LAYER-- SOME WATER MAY FLOW PAST LOWEST LAYER
                                                   Max.-Head-Change                         Max.-Flux-Residual
  Residual-Control   Outer-Iter.   Inner-Iter.     Column Row Layer    Maximum-Head-Change  Column Row Layer    Maximum-Flux-Residual          L2-NORM 
          0                 1           5            30   27     1      -0.1088430090E+01      69   28    1         0.7314197226E+02      0.3680819818E+03
          0                 2           3            49   21     1       0.9222687425E+00      63   38    1        -0.3929884441E+02      0.8860917188E+02
          0                 3           3            64   38     1      -0.2239452496E-01      64   38    1        -0.3158159338E+02      0.5111258414E+02
          0                 4           3            63   38     1      -0.2254106088E-01      63   38    1        -0.3184060810E+02      0.4645766214E+02
          0                 5           2            64   38     1      -0.9891781257E-02      64   38    1        -0.1401568890E+02      0.1784972009E+02
          0                 6           2            64   38     1      -0.2776826448E-02      64   38    1        -0.3947578906E+01      0.4884815198E+01
          0                 7           1            64   38     1      -0.5955751569E-03      64   38    1        -0.8483237708E+00      0.1241520896E+01

    ------------------------------------------------
       NWT REQUIRED            7 OUTER ITERATIONS 
       AND A TOTAL OF         19 INNER ITERATIONS.
    ------------------------------------------------

 NO OUTPUT CONTROL FOR STRESS PERIOD    3   TIME STEP    4
 ***WARNING***NUZTOP IS 3 AND ALL LAYERS  IN ROW           39  AND COLUMN           76  ARE INACTIVE.
 UNSATURATED FLOW WILL NOT BE ADDED TO ANY LAYER-- SOME WATER MAY FLOW PAST LOWEST LAYER
 ***WARNING***NUZTOP IS 3 AND ALL LAYERS  IN ROW           40  AND COLUMN           76  ARE INACTIVE.
 UNSATURATED FLOW WILL NOT BE ADDED TO ANY LAYER-- SOME WATER MAY FLOW PAST LOWEST LAYER
                                                   Max.-Head-Change                         Max.-Flux-Residual
  Residual-Control   Outer-Iter.   Inner-Iter.     Column Row Layer    Maximum-Head-Change  Column Row Layer    Maximum-Flux-Residual          L2-NORM 
          0                 1           5            52   40     1       0.8928825361E+00      69   28    1         0.6968555137E+02      0.3762421891E+03
          0                 2           5            57   10     1       0.7358949791E+00      63   38    1         0.4010641835E+02      0.9878581726E+02
          0                 3           3            64   38     1       0.2134713760E-01      64   38    1         0.3008777980E+02      0.5040992469E+02
          0                 4           3            64   38     1       0.1945085265E-01      64   38    1         0.2740378899E+02      0.4036373895E+02
          0                 5           2            64   38     1       0.8557566203E-02      64   38    1         0.1211758497E+02      0.1556795810E+02
          0                 6           2            64   38     1       0.2428155200E-02      64   38    1         0.3448410001E+01      0.4327370248E+01
          0                 7           1            64   38     1       0.5334116934E-03      64   38    1         0.7587478729E+00      0.1133013051E+01

    ------------------------------------------------
       NWT REQUIRED            7 OUTER ITERATIONS 
       AND A TOTAL OF         21 INNER ITERATIONS.
    ------------------------------------------------

 NO OUTPUT CONTROL FOR STRESS PERIOD    3   TIME STEP    5
 ***WARNING***NUZTOP IS 3 AND ALL LAYERS  IN ROW           39  AND COLUMN           76  ARE INACTIVE.
 UNSATURATED FLOW WILL NOT BE ADDED TO ANY LAYER-- SOME WATER MAY FLOW PAST LOWEST LAYER
 ***WARNING***NUZTOP IS 3 AND ALL LAYERS  IN ROW           40  AND COLUMN           76  ARE INACTIVE.
 UNSATURATED FLOW WILL NOT BE ADDED TO ANY LAYER-- SOME WATER MAY FLOW PAST LOWEST LAYER
                                                   Max.-Head-Change                         Max.-Flux-Residual
  Residual-Control   Outer-Iter.   Inner-Iter.     Column Row Layer    Maximum-Head-Change  Column Row Layer    Maximum-Flux-Residual          L2-NORM 
          0                 1           5            36   60     1       0.8295088511E+00      69   29    1         0.6898194156E+02      0.4076953440E+03
          0                 2           3            51   40     1       0.5839647224E+00      51   40    1         0.2081613357E+02      0.7163934103E+02
          0                 3           2            64   38     1       0.7262577483E-02      64   38    1         0.1023270304E+02      0.2612934712E+02
          0                 4           2            63   38     1       0.7791615230E-02      63   38    1         0.1100430091E+02      0.1752891191E+02
          0                 5           2            64   38     1       0.3419413286E-02      64   38    1         0.4843007566E+01      0.6841938219E+01
          0                 6           1            64   38     1       0.9805778827E-03      64   38    1         0.1393214371E+01      0.2148714501E+01

    ------------------------------------------------
       NWT REQUIRED            6 OUTER ITERATIONS 
       AND A TOTAL OF         15 INNER ITERATIONS.
    ------------------------------------------------

 NO OUTPUT CONTROL FOR STRESS PERIOD    3   TIME STEP    6
 ***WARNING***NUZTOP IS 3 AND ALL LAYERS  IN ROW           39  AND COLUMN           76  ARE INACTIVE.
 UNSATURATED FLOW WILL NOT BE ADDED TO ANY LAYER-- SOME WATER MAY FLOW PAST LOWEST LAYER
 ***WARNING***NUZTOP IS 3 AND ALL LAYERS  IN ROW           40  AND COLUMN           76  ARE INACTIVE.
 UNSATURATED FLOW WILL NOT BE ADDED TO ANY LAYER-- SOME WATER MAY FLOW PAST LOWEST LAYER
                                                   Max.-Head-Change                         Max.-Flux-Residual
  Residual-Control   Outer-Iter.   Inner-Iter.     Column Row Layer    Maximum-Head-Change  Column Row Layer    Maximum-Flux-Residual          L2-NORM 
          0                 1           4            70   47     1       0.2805802871E+01      69   29    1         0.6671772420E+02      0.4036619507E+03
          0                 2           4            61   49     1       0.1242898122E+01      65   21    1         0.4190995330E+02      0.8973419552E+02
          0                 3           3            61   49     1      -0.1484594748E-01      65   21    1        -0.1136791247E+02      0.2582960340E+02
          0                 4           2             5   57     1       0.3300358268E-02      64   38    1        -0.2491175814E+01      0.8709909036E+01
          0                 5           2             5   57     1       0.1586454905E-02       5   57    1         0.1048376416E+01      0.3334937431E+01
          0                 6           1             5   57     1       0.7618963723E-03       5   57    1         0.5039697187E+00      0.1429534745E+01

    ------------------------------------------------
       NWT REQUIRED            6 OUTER ITERATIONS 
       AND A TOTAL OF         16 INNER ITERATIONS.
    ------------------------------------------------

 NO OUTPUT CONTROL FOR STRESS PERIOD    3   TIME STEP    7
 ***WARNING***NUZTOP IS 3 AND ALL LAYERS  IN ROW           39  AND COLUMN           76  ARE INACTIVE.
 UNSATURATED FLOW WILL NOT BE ADDED TO ANY LAYER-- SOME WATER MAY FLOW PAST LOWEST LAYER
 ***WARNING***NUZTOP IS 3 AND ALL LAYERS  IN ROW           40  AND COLUMN           76  ARE INACTIVE.
 UNSATURATED FLOW WILL NOT BE ADDED TO ANY LAYER-- SOME WATER MAY FLOW PAST LOWEST LAYER
                                                   Max.-Head-Change                         Max.-Flux-Residual
  Residual-Control   Outer-Iter.   Inner-Iter.     Column Row Layer    Maximum-Head-Change  Column Row Layer    Maximum-Flux-Residual          L2-NORM 
          0                 1           5            30   27     1      -0.1153756240E+01      69   29    1         0.6439165229E+02      0.3523264727E+03
          0                 2           4            69   19     1       0.5783784835E+00      63   38    1        -0.4449780774E+02      0.9265940524E+02
          0                 3           3            64   38     1      -0.2521704343E-01      64   38    1        -0.3556034269E+02      0.5586822435E+02
          0                 4           3            63   38     1      -0.2582006524E-01      63   38    1        -0.3647445817E+02      0.5284917703E+02
          0                 5           2            64   38     1      -0.1134138284E-01      64   38    1        -0.1606911929E+02      0.2036912465E+02
          0                 6           2            64   38     1      -0.3211867066E-02      64   38    1        -0.4565552533E+01      0.5583758301E+01
          0                 7           1            64   38     1      -0.6972016049E-03      64   38    1        -0.9929828613E+00      0.1389836692E+01

    ------------------------------------------------
       NWT REQUIRED            7 OUTER ITERATIONS 
       AND A TOTAL OF         20 INNER ITERATIONS.
    ------------------------------------------------

 NO OUTPUT CONTROL FOR STRESS PERIOD    3   TIME STEP    8
 ***WARNING***NUZTOP IS 3 AND ALL LAYERS  IN ROW           39  AND COLUMN           76  ARE INACTIVE.
 UNSATURATED FLOW WILL NOT BE ADDED TO ANY LAYER-- SOME WATER MAY FLOW PAST LOWEST LAYER
 ***WARNING***NUZTOP IS 3 AND ALL LAYERS  IN ROW           40  AND COLUMN           76  ARE INACTIVE.
 UNSATURATED FLOW WILL NOT BE ADDED TO ANY LAYER-- SOME WATER MAY FLOW PAST LOWEST LAYER
                                                   Max.-Head-Change                         Max.-Flux-Residual
  Residual-Control   Outer-Iter.   Inner-Iter.     Column Row Layer    Maximum-Head-Change  Column Row Layer    Maximum-Flux-Residual          L2-NORM 
          0                 1           4            69   19     1       0.6490569756E+00      69   28    1         0.5716859078E+02      0.2837953680E+03
          0                 2           3            22   40     1       0.5581126433E+00      69   28    1         0.1380635360E+02      0.5458710985E+02
          0                 3           2            23   40     1       0.5534646377E-02      69   28    1         0.3312109508E+01      0.1707313859E+02
          0                 4           2            63   38     1      -0.3335771314E-02      63   38    1        -0.4728031474E+01      0.8790676922E+01
          0                 5           2            64   38     1      -0.1574991048E-02      64   38    1        -0.2229240116E+01      0.3795215929E+01
          0                 6           1             5   60     1       0.5510087117E-03      64   38    1        -0.7064490586E+00      0.1379045016E+01

    ------------------------------------------------
       NWT REQUIRED            6 OUTER ITERATIONS 
       AND A TOTAL OF         14 INNER ITERATIONS.
    ------------------------------------------------

 NO OUTPUT CONTROL FOR STRESS PERIOD    3   TIME STEP    9
 ***WARNING***NUZTOP IS 3 AND ALL LAYERS  IN ROW           39  AND COLUMN           76  ARE INACTIVE.
 UNSATURATED FLOW WILL NOT BE ADDED TO ANY LAYER-- SOME WATER MAY FLOW PAST LOWEST LAYER
 ***WARNING***NUZTOP IS 3 AND ALL LAYERS  IN ROW           40  AND COLUMN           76  ARE INACTIVE.
 UNSATURATED FLOW WILL NOT BE ADDED TO ANY LAYER-- SOME WATER MAY FLOW PAST LOWEST LAYER
                                                   Max.-Head-Change                         Max.-Flux-Residual
  Residual-Control   Outer-Iter.   Inner-Iter.     Column Row Layer    Maximum-Head-Change  Column Row Layer    Maximum-Flux-Residual          L2-NORM 
          0                 1           4            26   35     1       0.7336048580E+00      69   28    1         0.5471545519E+02      0.2629846554E+03
          0                 2           4            38   58     1       0.1655832050E+00      38   58    1         0.1388905798E+02      0.5495044841E+02
          0                 3           2            64   38     1      -0.7671916280E-02      64   38    1        -0.1082175443E+02      0.2266762379E+02
          0                 4           2            63   38     1      -0.8749728323E-02      63   38    1        -0.1236598404E+02      0.1845680453E+02
          0                 5           2            64   38     1      -0.3818183074E-02      64   38    1        -0.5410857090E+01      0.7129412360E+01
          0                 6           2            64   38     1      -0.1063396483E-02      64   38    1        -0.1512221487E+01      0.2047034047E+01
          0                 7           1             5   60     1       0.2465967345E-03      64   38    1        -0.3162819372E+00      0.6228438807E+00

    ------------------------------------------------
       NWT REQUIRED            7 OUTER ITERATIONS 
       AND A TOTAL OF         17 INNER ITERATIONS.
    ------------------------------------------------

 NO OUTPUT CONTROL FOR STRESS PERIOD    3   TIME STEP   10
 ***WARNING***NUZTOP IS 3 AND ALL LAYERS  IN ROW           39  AND COLUMN           76  ARE INACTIVE.
 UNSATURATED FLOW WILL NOT BE ADDED TO ANY LAYER-- SOME WATER MAY FLOW PAST LOWEST LAYER
 ***WARNING***NUZTOP IS 3 AND ALL LAYERS  IN ROW           40  AND COLUMN           76  ARE INACTIVE.
 UNSATURATED FLOW WILL NOT BE ADDED TO ANY LAYER-- SOME WATER MAY FLOW PAST LOWEST LAYER
                                                   Max.-Head-Change                         Max.-Flux-Residual
  Residual-Control   Outer-Iter.   Inner-Iter.     Column Row Layer    Maximum-Head-Change  Column Row Layer    Maximum-Flux-Residual          L2-NORM 
          0                 1           4            67   15     1       0.3003648961E+00      68   27    1         0.5270033726E+02      0.2518036375E+03
          0                 2           4            48   23     1       0.6289437255E+00      48   23    1         0.1449558726E+02      0.5392733131E+02
          0                 3           2            64   38     1       0.5006033018E-02      64   38    1         0.7045281937E+01      0.1942761339E+02
          0                 4           2            63   38     1       0.4951228081E-02      63   38    1         0.6988879855E+01      0.1171898148E+02
          0                 5           2            64   38     1       0.2134544913E-02      64   38    1         0.3023539940E+01      0.4475299285E+01
          0                 6           1            64   38     1       0.6092464532E-03      64   38    1         0.8653201755E+00      0.1487669458E+01

    ------------------------------------------------
       NWT REQUIRED            6 OUTER ITERATIONS 
       AND A TOTAL OF         15 INNER ITERATIONS.
    ------------------------------------------------

 NO OUTPUT CONTROL FOR STRESS PERIOD    3   TIME STEP   11
 ***WARNING***NUZTOP IS 3 AND ALL LAYERS  IN ROW           39  AND COLUMN           76  ARE INACTIVE.
 UNSATURATED FLOW WILL NOT BE ADDED TO ANY LAYER-- SOME WATER MAY FLOW PAST LOWEST LAYER
 ***WARNING***NUZTOP IS 3 AND ALL LAYERS  IN ROW           40  AND COLUMN           76  ARE INACTIVE.
 UNSATURATED FLOW WILL NOT BE ADDED TO ANY LAYER-- SOME WATER MAY FLOW PAST LOWEST LAYER
                                                   Max.-Head-Change                         Max.-Flux-Residual
  Residual-Control   Outer-Iter.   Inner-Iter.     Column Row Layer    Maximum-Head-Change  Column Row Layer    Maximum-Flux-Residual          L2-NORM 
          0                 1           4            48   23     1       0.9624329870E+00      68   27    1         0.5128582219E+02      0.2533509536E+03
          0                 2           3            67   53     1       0.1361977877E+00      69   28    1         0.1205856377E+02      0.4981872921E+02
          0                 3           2             5   60     1       0.4448020898E-02       5   60    1         0.2910238648E+01      0.1591782931E+02
          0                 4           2             5   60     1       0.2159676930E-02       5   60    1         0.1412536770E+01      0.5895321939E+01
          0                 5           2             5   60     1       0.1048620540E-02       5   60    1         0.6858221205E+00      0.2443758322E+01
          0                 6           1             5   60     1       0.5091425387E-03       5   60    1         0.3330016342E+00      0.1088886112E+01

    ------------------------------------------------
       NWT REQUIRED            6 OUTER ITERATIONS 
       AND A TOTAL OF         14 INNER ITERATIONS.
    ------------------------------------------------

 NO OUTPUT CONTROL FOR STRESS PERIOD    3   TIME STEP   12
 ***WARNING***NUZTOP IS 3 AND ALL LAYERS  IN ROW           39  AND COLUMN           76  ARE INACTIVE.
 UNSATURATED FLOW WILL NOT BE ADDED TO ANY LAYER-- SOME WATER MAY FLOW PAST LOWEST LAYER
 ***WARNING***NUZTOP IS 3 AND ALL LAYERS  IN ROW           40  AND COLUMN           76  ARE INACTIVE.
 UNSATURATED FLOW WILL NOT BE ADDED TO ANY LAYER-- SOME WATER MAY FLOW PAST LOWEST LAYER
                                                   Max.-Head-Change                         Max.-Flux-Residual
  Residual-Control   Outer-Iter.   Inner-Iter.     Column Row Layer    Maximum-Head-Change  Column Row Layer    Maximum-Flux-Residual          L2-NORM 
          0                 1           4            67   53     1       0.6429381940E+00      68   27    1         0.4979164111E+02      0.2530797140E+03
          0                 2           3            66   59     1       0.3615582958E+00      69   28    1         0.1157659025E+02      0.5059157078E+02
          0                 3           2             5   60     1       0.4610707005E-02       5   60    1         0.3016050141E+01      0.1652491696E+02
          0                 4           2            63   38     1       0.3045570365E-02      63   38    1         0.4306464018E+01      0.8391242351E+01
          0                 5           2            64   38     1       0.1322273166E-02      64   38    1         0.1872588316E+01      0.3391470538E+01
          0                 6           1             5   60     1       0.5279187894E-03      64   38    1         0.5669895393E+00      0.1284771673E+01

    ------------------------------------------------
       NWT REQUIRED            6 OUTER ITERATIONS 
       AND A TOTAL OF         14 INNER ITERATIONS.
    ------------------------------------------------

 NO OUTPUT CONTROL FOR STRESS PERIOD    3   TIME STEP   13
 ***WARNING***NUZTOP IS 3 AND ALL LAYERS  IN ROW           39  AND COLUMN           76  ARE INACTIVE.
 UNSATURATED FLOW WILL NOT BE ADDED TO ANY LAYER-- SOME WATER MAY FLOW PAST LOWEST LAYER
 ***WARNING***NUZTOP IS 3 AND ALL LAYERS  IN ROW           40  AND COLUMN           76  ARE INACTIVE.
 UNSATURATED FLOW WILL NOT BE ADDED TO ANY LAYER-- SOME WATER MAY FLOW PAST LOWEST LAYER
                                                   Max.-Head-Change                         Max.-Flux-Residual
  Residual-Control   Outer-Iter.   Inner-Iter.     Column Row Layer    Maximum-Head-Change  Column Row Layer    Maximum-Flux-Residual          L2-NORM 
          0                 1           5            68   57     1       0.6314105327E+00      68   27    1         0.4840322263E+02      0.2747393617E+03
          0                 2           4            62   30     1       0.7461812411E+00      63   38    1         0.1270610920E+02      0.5852161729E+02
          0                 3           2            63   38     1       0.9248488748E-02      63   38    1         0.1305853161E+02      0.2603666478E+02
          0                 4           3            63   38     1       0.1348016874E-01      63   38    1         0.1905929253E+02      0.2717349354E+02
          0                 5           2            64   38     1       0.6007494916E-02      64   38    1         0.8507712570E+01      0.1094891435E+02
          0                 6           2            64   38     1       0.1773195179E-02      64   38    1         0.2519400797E+01      0.3149042423E+01
          0                 7           1            64   38     1       0.4036941032E-03      64   38    1         0.5746757541E+00      0.8614512923E+00

    ------------------------------------------------
       NWT REQUIRED            7 OUTER ITERATIONS 
       AND A TOTAL OF         19 INNER ITERATIONS.
    ------------------------------------------------

 NO OUTPUT CONTROL FOR STRESS PERIOD    3   TIME STEP   14
 ***WARNING***NUZTOP IS 3 AND ALL LAYERS  IN ROW           39  AND COLUMN           76  ARE INACTIVE.
 UNSATURATED FLOW WILL NOT BE ADDED TO ANY LAYER-- SOME WATER MAY FLOW PAST LOWEST LAYER
 ***WARNING***NUZTOP IS 3 AND ALL LAYERS  IN ROW           40  AND COLUMN           76  ARE INACTIVE.
 UNSATURATED FLOW WILL NOT BE ADDED TO ANY LAYER-- SOME WATER MAY FLOW PAST LOWEST LAYER
                                                   Max.-Head-Change                         Max.-Flux-Residual
  Residual-Control   Outer-Iter.   Inner-Iter.     Column Row Layer    Maximum-Head-Change  Column Row Layer    Maximum-Flux-Residual          L2-NORM 
          0                 1           5            27   35     1       0.1209082760E+01      68   27    1         0.4718499409E+02      0.3382439352E+03
          0                 2           4            67   48     1       0.1505193401E+01      63   38    1         0.4407869259E+02      0.9904405745E+02
          0                 3           4            67   47     1       0.2576825572E+00      64   38    1         0.2942577472E+02      0.5056030997E+02
          0                 4           3            64   38     1       0.1620551676E-01      64   38    1         0.2285270244E+02      0.3409086725E+02
          0                 5           2            64   38     1       0.6501129347E-02      64   38    1         0.9215836794E+01      0.1213724934E+02
          0                 6           2            64   38     1       0.1731862796E-02      64   38    1         0.2462214799E+01      0.3362896928E+01
          0                 7           1            69   30     1       0.3648401412E-03      64   38    1         0.5182437383E+00      0.9659936971E+00

    ------------------------------------------------
       NWT REQUIRED            7 OUTER ITERATIONS 
       AND A TOTAL OF         21 INNER ITERATIONS.
    ------------------------------------------------

 NO OUTPUT CONTROL FOR STRESS PERIOD    3   TIME STEP   15
 ***WARNING***NUZTOP IS 3 AND ALL LAYERS  IN ROW           39  AND COLUMN           76  ARE INACTIVE.
 UNSATURATED FLOW WILL NOT BE ADDED TO ANY LAYER-- SOME WATER MAY FLOW PAST LOWEST LAYER
 ***WARNING***NUZTOP IS 3 AND ALL LAYERS  IN ROW           40  AND COLUMN           76  ARE INACTIVE.
 UNSATURATED FLOW WILL NOT BE ADDED TO ANY LAYER-- SOME WATER MAY FLOW PAST LOWEST LAYER
                                                   Max.-Head-Change                         Max.-Flux-Residual
  Residual-Control   Outer-Iter.   Inner-Iter.     Column Row Layer    Maximum-Head-Change  Column Row Layer    Maximum-Flux-Residual          L2-NORM 
          0                 1           4            48   22     1       0.8701044177E+00      69   29    1         0.5894476609E+02      0.3390819288E+03
          0                 2           3            66   11     1       0.5395260407E+00      63   38    1        -0.1855132393E+02      0.6339501119E+02
          0                 3           2            64   38     1      -0.8272113918E-02      64   38    1        -0.1168499996E+02      0.2520175960E+02
          0                 4           2            64   38     1      -0.4079967342E-02      64   38    1        -0.5772492387E+01      0.1068038420E+02
          0                 5           2            64   38     1      -0.1273079456E-02      64   38    1        -0.1807960130E+01      0.3779964868E+01
          0                 6           1             5   57     1       0.6079048685E-03      69   30    1        -0.5220172954E+00      0.1428814268E+01

    ------------------------------------------------
       NWT REQUIRED            6 OUTER ITERATIONS 
       AND A TOTAL OF         14 INNER ITERATIONS.
    ------------------------------------------------

 NO OUTPUT CONTROL FOR STRESS PERIOD    3   TIME STEP   16
 ***WARNING***NUZTOP IS 3 AND ALL LAYERS  IN ROW           39  AND COLUMN           76  ARE INACTIVE.
 UNSATURATED FLOW WILL NOT BE ADDED TO ANY LAYER-- SOME WATER MAY FLOW PAST LOWEST LAYER
 ***WARNING***NUZTOP IS 3 AND ALL LAYERS  IN ROW           40  AND COLUMN           76  ARE INACTIVE.
 UNSATURATED FLOW WILL NOT BE ADDED TO ANY LAYER-- SOME WATER MAY FLOW PAST LOWEST LAYER
                                                   Max.-Head-Change                         Max.-Flux-Residual
  Residual-Control   Outer-Iter.   Inner-Iter.     Column Row Layer    Maximum-Head-Change  Column Row Layer    Maximum-Flux-Residual          L2-NORM 
          0                 1           4            60   54     1       0.4996200397E+00      69   29    1         0.5689300303E+02      0.3167353556E+03
          0                 2           3            30   27     1      -0.1137687529E-01      69   28    1         0.9291595109E+01      0.5535240895E+02
          0                 3           2             5   57     1       0.5169593225E-02      64   38    1        -0.4806733187E+01      0.1895633269E+02
          0                 4           2             5   57     1       0.2486135254E-02      64   38    1        -0.2954186059E+01      0.7839352644E+01
          0                 5           2             5   57     1       0.1195351223E-02      64   38    1        -0.1125890573E+01      0.3122217675E+01
          0                 6           1             5   57     1       0.5742981989E-03       5   57    1         0.3796058041E+00      0.1297848503E+01

    ------------------------------------------------
       NWT REQUIRED            6 OUTER ITERATIONS 
       AND A TOTAL OF         14 INNER ITERATIONS.
    ------------------------------------------------

 NO OUTPUT CONTROL FOR STRESS PERIOD    3   TIME STEP   17
 ***WARNING***NUZTOP IS 3 AND ALL LAYERS  IN ROW           39  AND COLUMN           76  ARE INACTIVE.
 UNSATURATED FLOW WILL NOT BE ADDED TO ANY LAYER-- SOME WATER MAY FLOW PAST LOWEST LAYER
 ***WARNING***NUZTOP IS 3 AND ALL LAYERS  IN ROW           40  AND COLUMN           76  ARE INACTIVE.
 UNSATURATED FLOW WILL NOT BE ADDED TO ANY LAYER-- SOME WATER MAY FLOW PAST LOWEST LAYER
                                                   Max.-Head-Change                         Max.-Flux-Residual
  Residual-Control   Outer-Iter.   Inner-Iter.     Column Row Layer    Maximum-Head-Change  Column Row Layer    Maximum-Flux-Residual          L2-NORM 
          0                 1           5            49   22     1       0.7523902591E+00      69   29    1         0.5482760558E+02      0.3381055009E+03
          0                 2           4             6   58     1       0.1406608878E+01       6   58    1         0.3242173483E+02      0.8413223082E+02
          0                 3           3            64   38     1       0.1392691436E-01      64   38    1         0.1964899857E+02      0.3822272948E+02
          0                 4           2            64   38     1       0.9907449567E-02      64   38    1         0.1397672728E+02      0.2207956043E+02
          0                 5           2            64   38     1       0.3885065265E-02      64   38    1         0.5507662911E+01      0.7925452301E+01
          0                 6           2            64   38     1       0.1034903442E-02      64   38    1         0.1471145561E+01      0.2441448872E+01
          0                 7           1             7   58     1       0.3629075836E-03      69   30    1         0.3300026470E+00      0.8547818675E+00

    ------------------------------------------------
       NWT REQUIRED            7 OUTER ITERATIONS 
       AND A TOTAL OF         19 INNER ITERATIONS.
    ------------------------------------------------

 NO OUTPUT CONTROL FOR STRESS PERIOD    3   TIME STEP   18
 ***WARNING***NUZTOP IS 3 AND ALL LAYERS  IN ROW           39  AND COLUMN           76  ARE INACTIVE.
 UNSATURATED FLOW WILL NOT BE ADDED TO ANY LAYER-- SOME WATER MAY FLOW PAST LOWEST LAYER
 ***WARNING***NUZTOP IS 3 AND ALL LAYERS  IN ROW           40  AND COLUMN           76  ARE INACTIVE.
 UNSATURATED FLOW WILL NOT BE ADDED TO ANY LAYER-- SOME WATER MAY FLOW PAST LOWEST LAYER
                                                   Max.-Head-Change                         Max.-Flux-Residual
  Residual-Control   Outer-Iter.   Inner-Iter.     Column Row Layer    Maximum-Head-Change  Column Row Layer    Maximum-Flux-Residual          L2-NORM 
          0                 1           5            28   35     1       0.1065251900E+01      69   30    1         0.6251778057E+02      0.3607452986E+03
          0                 2           4            53   27     1       0.1905402393E+01      69   17    1         0.3631777962E+02      0.7729083688E+02
          0                 3           2             5   57     1       0.6359696334E-02      64   38    1         0.6194518018E+01      0.2214136001E+02
          0                 4           2            63   38     1       0.4730762240E-02      63   38    1         0.6681225926E+01      0.1215438883E+02
          0                 5           2            64   38     1       0.2061230298E-02      64   38    1         0.2919345659E+01      0.4813461675E+01
          0                 6           1             5   57     1       0.7103315611E-03      64   38    1         0.8381754958E+00      0.1713982769E+01

    ------------------------------------------------
       NWT REQUIRED            6 OUTER ITERATIONS 
       AND A TOTAL OF         16 INNER ITERATIONS.
    ------------------------------------------------

 NO OUTPUT CONTROL FOR STRESS PERIOD    3   TIME STEP   19
 ***WARNING***NUZTOP IS 3 AND ALL LAYERS  IN ROW           39  AND COLUMN           76  ARE INACTIVE.
 UNSATURATED FLOW WILL NOT BE ADDED TO ANY LAYER-- SOME WATER MAY FLOW PAST LOWEST LAYER
 ***WARNING***NUZTOP IS 3 AND ALL LAYERS  IN ROW           40  AND COLUMN           76  ARE INACTIVE.
 UNSATURATED FLOW WILL NOT BE ADDED TO ANY LAYER-- SOME WATER MAY FLOW PAST LOWEST LAYER
                                                   Max.-Head-Change                         Max.-Flux-Residual
  Residual-Control   Outer-Iter.   Inner-Iter.     Column Row Layer    Maximum-Head-Change  Column Row Layer    Maximum-Flux-Residual          L2-NORM 
          0                 1           5            41   30     1       0.9233060322E+00      69   30    1         0.7285509135E+02      0.3777697687E+03
          0                 2           4            67   40     1      -0.9395824614E+00      68   19    1         0.2441982494E+02      0.7004140540E+02
          0                 3           4            67   40     1      -0.1047865346E+01      64   38    1         0.8612989296E+01      0.2510576114E+02
          0                 4           4            67   40     1      -0.2296416330E+00      63   38    1         0.9564322668E+01      0.1576206721E+02
          0                 5           4            67   40     1      -0.5034798426E-01      64   38    1         0.4166858676E+01      0.6144577987E+01
          0                 6           2            67   40     1      -0.1082370577E-01      64   38    1         0.1182285201E+01      0.2002907382E+01
          0                 7           2            67   40     1      -0.2557464734E-02      64   38    1         0.2603545655E+00      0.7455009432E+00
          0                 8           1            67   40     1      -0.6047263296E-03       5   57    1         0.1156410199E+00      0.3376360342E+00

    ------------------------------------------------
       NWT REQUIRED            8 OUTER ITERATIONS 
       AND A TOTAL OF         26 INNER ITERATIONS.
    ------------------------------------------------

 NO OUTPUT CONTROL FOR STRESS PERIOD    3   TIME STEP   20
 ***WARNING***NUZTOP IS 3 AND ALL LAYERS  IN ROW           39  AND COLUMN           76  ARE INACTIVE.
 UNSATURATED FLOW WILL NOT BE ADDED TO ANY LAYER-- SOME WATER MAY FLOW PAST LOWEST LAYER
 ***WARNING***NUZTOP IS 3 AND ALL LAYERS  IN ROW           40  AND COLUMN           76  ARE INACTIVE.
 UNSATURATED FLOW WILL NOT BE ADDED TO ANY LAYER-- SOME WATER MAY FLOW PAST LOWEST LAYER
                                                   Max.-Head-Change                         Max.-Flux-Residual
  Residual-Control   Outer-Iter.   Inner-Iter.     Column Row Layer    Maximum-Head-Change  Column Row Layer    Maximum-Flux-Residual          L2-NORM 
          0                 1           5            68   19     1       0.9258447923E+00      69   30    1         0.8469315082E+02      0.3813354595E+03
          0                 2           4            19   37     1       0.1187987074E+01      19   37    1         0.1925080224E+02      0.6407953220E+02
          0                 3           3            67   40     1      -0.4021316061E-01       5   57    1         0.4293456562E+01      0.2020916287E+02
          0                 4           2            67   40     1      -0.8653371033E-02       5   57    1         0.2070165384E+01      0.7885116403E+01
          0                 5           2            67   40     1      -0.2050480234E-02       5   57    1         0.9975191822E+00      0.3239760585E+01
          0                 6           1             5   57     1       0.7275155972E-03       5   57    1         0.4804369128E+00      0.1427334023E+01

    ------------------------------------------------
       NWT REQUIRED            6 OUTER ITERATIONS 
       AND A TOTAL OF         17 INNER ITERATIONS.
    ------------------------------------------------

 NO OUTPUT CONTROL FOR STRESS PERIOD    3   TIME STEP   21
 ***WARNING***NUZTOP IS 3 AND ALL LAYERS  IN ROW           39  AND COLUMN           76  ARE INACTIVE.
 UNSATURATED FLOW WILL NOT BE ADDED TO ANY LAYER-- SOME WATER MAY FLOW PAST LOWEST LAYER
 ***WARNING***NUZTOP IS 3 AND ALL LAYERS  IN ROW           40  AND COLUMN           76  ARE INACTIVE.
 UNSATURATED FLOW WILL NOT BE ADDED TO ANY LAYER-- SOME WATER MAY FLOW PAST LOWEST LAYER
                                                   Max.-Head-Change                         Max.-Flux-Residual
  Residual-Control   Outer-Iter.   Inner-Iter.     Column Row Layer    Maximum-Head-Change  Column Row Layer    Maximum-Flux-Residual          L2-NORM 
          0                 1           5            25   32     1       0.1281162642E+01      69   30    1         0.7447331949E+02      0.3511578107E+03
          0                 2           4            48   21     1       0.2164839127E+01      48   21    1         0.3317465616E+02      0.8171417228E+02
          0                 3           3            49   21     1       0.2346416864E-01      64   38    1        -0.1747102409E+02      0.3464858463E+02
          0                 4           2            64   38     1      -0.1058510769E-01      64   38    1        -0.1492454746E+02      0.2299358491E+02
          0                 5           2            64   38     1      -0.4377659944E-02      64   38    1        -0.6205654889E+01      0.8434043689E+01
          0                 6           2            64   38     1      -0.1174802585E-02      64   38    1        -0.1670481170E+01      0.2470310901E+01
          0                 7           1             5   57     1       0.3246933470E-03      64   38    1        -0.3461682811E+00      0.8102195166E+00

    ------------------------------------------------
       NWT REQUIRED            7 OUTER ITERATIONS 
       AND A TOTAL OF         19 INNER ITERATIONS.
    ------------------------------------------------

 NO OUTPUT CONTROL FOR STRESS PERIOD    3   TIME STEP   22
 ***WARNING***NUZTOP IS 3 AND ALL LAYERS  IN ROW           39  AND COLUMN           76  ARE INACTIVE.
 UNSATURATED FLOW WILL NOT BE ADDED TO ANY LAYER-- SOME WATER MAY FLOW PAST LOWEST LAYER
 ***WARNING***NUZTOP IS 3 AND ALL LAYERS  IN ROW           40  AND COLUMN           76  ARE INACTIVE.
 UNSATURATED FLOW WILL NOT BE ADDED TO ANY LAYER-- SOME WATER MAY FLOW PAST LOWEST LAYER
                                                   Max.-Head-Change                         Max.-Flux-Residual
  Residual-Control   Outer-Iter.   Inner-Iter.     Column Row Layer    Maximum-Head-Change  Column Row Layer    Maximum-Flux-Residual          L2-NORM 
          0                 1           4            30   27     1      -0.4577099791E+00      69   29    1         0.4949367577E+02      0.2999265559E+03
          0                 2           4            19   36     1       0.5829556561E+00      57    8    1         0.1601333654E+02      0.5999576360E+02
          0                 3           2            64   38     1      -0.8044182359E-02      64   38    1        -0.1134756938E+02      0.2469855099E+02
          0                 4           2            63   38     1      -0.9512902887E-02      63   38    1        -0.1344611607E+02      0.2019087335E+02
          0                 5           2            64   38     1      -0.4191516000E-02      64   38    1        -0.5938061908E+01      0.7967149116E+01
          0                 6           2            64   38     1      -0.1192680451E-02      64   38    1        -0.1695269030E+01      0.2374055759E+01
          0                 7           1             5   57     1       0.2778682374E-03      64   38    1        -0.3668778129E+00      0.7666452476E+00

    ------------------------------------------------
       NWT REQUIRED            7 OUTER ITERATIONS 
       AND A TOTAL OF         17 INNER ITERATIONS.
    ------------------------------------------------

 NO OUTPUT CONTROL FOR STRESS PERIOD    3   TIME STEP   23
 ***WARNING***NUZTOP IS 3 AND ALL LAYERS  IN ROW           39  AND COLUMN           76  ARE INACTIVE.
 UNSATURATED FLOW WILL NOT BE ADDED TO ANY LAYER-- SOME WATER MAY FLOW PAST LOWEST LAYER
 ***WARNING***NUZTOP IS 3 AND ALL LAYERS  IN ROW           40  AND COLUMN           76  ARE INACTIVE.
 UNSATURATED FLOW WILL NOT BE ADDED TO ANY LAYER-- SOME WATER MAY FLOW PAST LOWEST LAYER
                                                   Max.-Head-Change                         Max.-Flux-Residual
  Residual-Control   Outer-Iter.   Inner-Iter.     Column Row Layer    Maximum-Head-Change  Column Row Layer    Maximum-Flux-Residual          L2-NORM 
          0                 1           4            61   48     1       0.9753541685E+00      69   29    1         0.4746996330E+02      0.2696555604E+03
          0                 2           4            60   47     1       0.7333064231E+00      60   47    1         0.1480827767E+02      0.5367655104E+02
          0                 3           2             5   57     1       0.4850966447E-02      64   38    1        -0.3647831432E+01      0.1805795140E+02
          0                 4           2            63   38     1      -0.3424070193E-02      63   38    1        -0.4842825444E+01      0.9493329833E+01
          0                 5           2            64   38     1      -0.1544186357E-02      64   38    1        -0.2187393264E+01      0.3966030521E+01
          0                 6           1             5   57     1       0.5433116175E-03      64   38    1        -0.6372682508E+00      0.1518000541E+01

    ------------------------------------------------
       NWT REQUIRED            6 OUTER ITERATIONS 
       AND A TOTAL OF         15 INNER ITERATIONS.
    ------------------------------------------------

 NO OUTPUT CONTROL FOR STRESS PERIOD    3   TIME STEP   24
 ***WARNING***NUZTOP IS 3 AND ALL LAYERS  IN ROW           39  AND COLUMN           76  ARE INACTIVE.
 UNSATURATED FLOW WILL NOT BE ADDED TO ANY LAYER-- SOME WATER MAY FLOW PAST LOWEST LAYER
 ***WARNING***NUZTOP IS 3 AND ALL LAYERS  IN ROW           40  AND COLUMN           76  ARE INACTIVE.
 UNSATURATED FLOW WILL NOT BE ADDED TO ANY LAYER-- SOME WATER MAY FLOW PAST LOWEST LAYER
                                                   Max.-Head-Change                         Max.-Flux-Residual
  Residual-Control   Outer-Iter.   Inner-Iter.     Column Row Layer    Maximum-Head-Change  Column Row Layer    Maximum-Flux-Residual          L2-NORM 
          0                 1           5            25   33     1       0.9596856017E+00      69   29    1         0.4725371534E+02      0.3053190648E+03
          0                 2           3            30   57     1       0.6527132182E+00      63   38    1         0.3269390031E+02      0.7857555544E+02
          0                 3           3            64   38     1       0.1832876770E-01      64   38    1         0.2583468845E+02      0.4475216150E+02
          0                 4           3            63   38     1       0.1797465224E-01      63   38    1         0.2538340819E+02      0.3760184123E+02
          0                 5           2            64   38     1       0.7714258141E-02      64   38    1         0.1093061820E+02      0.1404658376E+02
          0                 6           2            64   38     1       0.2123610378E-02      64   38    1         0.3018514244E+01      0.3857705117E+01
          0                 7           1            64   38     1       0.4522028953E-03      64   38    1         0.6439201671E+00      0.1063246457E+01

    ------------------------------------------------
       NWT REQUIRED            7 OUTER ITERATIONS 
       AND A TOTAL OF         19 INNER ITERATIONS.
    ------------------------------------------------

 NO OUTPUT CONTROL FOR STRESS PERIOD    3   TIME STEP   25
 ***WARNING***NUZTOP IS 3 AND ALL LAYERS  IN ROW           39  AND COLUMN           76  ARE INACTIVE.
 UNSATURATED FLOW WILL NOT BE ADDED TO ANY LAYER-- SOME WATER MAY FLOW PAST LOWEST LAYER
 ***WARNING***NUZTOP IS 3 AND ALL LAYERS  IN ROW           40  AND COLUMN           76  ARE INACTIVE.
 UNSATURATED FLOW WILL NOT BE ADDED TO ANY LAYER-- SOME WATER MAY FLOW PAST LOWEST LAYER
                                                   Max.-Head-Change                         Max.-Flux-Residual
  Residual-Control   Outer-Iter.   Inner-Iter.     Column Row Layer    Maximum-Head-Change  Column Row Layer    Maximum-Flux-Residual          L2-NORM 
          0                 1           4            71   65     1       0.1263483386E+01      69   30    1         0.6537548978E+02      0.3506867003E+03
          0                 2           3            56   35     1       0.1742933478E+00      63   38    1         0.1831640513E+02      0.6771672044E+02
          0                 3           2            64   38     1       0.8703179890E-02      64   38    1         0.1227296665E+02      0.2757365684E+02
          0                 4           2            63   38     1       0.8592198483E-02      63   38    1         0.1213363271E+02      0.1916453667E+02
          0                 5           2            64   38     1       0.3706352842E-02      64   38    1         0.5250687203E+01      0.7340006061E+01
          0                 6           2            64   38     1       0.1029303409E-02      64   38    1         0.1462758049E+01      0.2276758162E+01
          0                 7           1             3   56     1       0.3275301970E-03      64   38    1         0.3145930168E+00      0.8147668668E+00

    ------------------------------------------------
       NWT REQUIRED            7 OUTER ITERATIONS 
       AND A TOTAL OF         16 INNER ITERATIONS.
    ------------------------------------------------

 NO OUTPUT CONTROL FOR STRESS PERIOD    3   TIME STEP   26
 ***WARNING***NUZTOP IS 3 AND ALL LAYERS  IN ROW           39  AND COLUMN           76  ARE INACTIVE.
 UNSATURATED FLOW WILL NOT BE ADDED TO ANY LAYER-- SOME WATER MAY FLOW PAST LOWEST LAYER
 ***WARNING***NUZTOP IS 3 AND ALL LAYERS  IN ROW           40  AND COLUMN           76  ARE INACTIVE.
 UNSATURATED FLOW WILL NOT BE ADDED TO ANY LAYER-- SOME WATER MAY FLOW PAST LOWEST LAYER
                                                   Max.-Head-Change                         Max.-Flux-Residual
  Residual-Control   Outer-Iter.   Inner-Iter.     Column Row Layer    Maximum-Head-Change  Column Row Layer    Maximum-Flux-Residual          L2-NORM 
          0                 1           4            56   35     1       0.3666498727E+00      69   30    1         0.8597423873E+02      0.3682368345E+03
          0                 2           4            38   64     1       0.2616273224E+00      65   21    1        -0.3851866307E+02      0.8415706785E+02
          0                 3           2            69   30     1       0.1129109255E-01      69   30    1         0.1461885403E+02      0.2918156370E+02
          0                 4           2             5   60     1       0.2524205299E-02      69   30    1        -0.2956331077E+01      0.8701848955E+01
          0                 5           2             5   60     1       0.1226138588E-02      64   38    1         0.1028389949E+01      0.3456915883E+01
          0                 6           1             5   60     1       0.5955913798E-03       5   60    1         0.3895214655E+00      0.1572380762E+01

    ------------------------------------------------
       NWT REQUIRED            6 OUTER ITERATIONS 
       AND A TOTAL OF         15 INNER ITERATIONS.
    ------------------------------------------------

 NO OUTPUT CONTROL FOR STRESS PERIOD    3   TIME STEP   27
 ***WARNING***NUZTOP IS 3 AND ALL LAYERS  IN ROW           39  AND COLUMN           76  ARE INACTIVE.
 UNSATURATED FLOW WILL NOT BE ADDED TO ANY LAYER-- SOME WATER MAY FLOW PAST LOWEST LAYER
 ***WARNING***NUZTOP IS 3 AND ALL LAYERS  IN ROW           40  AND COLUMN           76  ARE INACTIVE.
 UNSATURATED FLOW WILL NOT BE ADDED TO ANY LAYER-- SOME WATER MAY FLOW PAST LOWEST LAYER
                                                   Max.-Head-Change                         Max.-Flux-Residual
  Residual-Control   Outer-Iter.   Inner-Iter.     Column Row Layer    Maximum-Head-Change  Column Row Layer    Maximum-Flux-Residual          L2-NORM 
          0                 1           4            25   33     2       0.1842003542E+00      69   30    1         0.1073020631E+03      0.3720324945E+03
          0                 2           5            70   63     1       0.1286373724E+01      70   63    1         0.2379960192E+02      0.6601604960E+02
          0                 3           2             5   60     1       0.5156031253E-02      69   30    1         0.5119743312E+01      0.2035770808E+02
          0                 4           2             5   60     1       0.2505057046E-02      69   30    1         0.2242187951E+01      0.8071334792E+01
          0                 5           2             5   60     1       0.1216903342E-02      69   30    1         0.8038711523E+00      0.3404111504E+01
          0                 6           1             5   60     1       0.5911376379E-03       5   60    1         0.3865866233E+00      0.1517277534E+01

    ------------------------------------------------
       NWT REQUIRED            6 OUTER ITERATIONS 
       AND A TOTAL OF         16 INNER ITERATIONS.
    ------------------------------------------------

 NO OUTPUT CONTROL FOR STRESS PERIOD    3   TIME STEP   28
 ***WARNING***NUZTOP IS 3 AND ALL LAYERS  IN ROW           39  AND COLUMN           76  ARE INACTIVE.
 UNSATURATED FLOW WILL NOT BE ADDED TO ANY LAYER-- SOME WATER MAY FLOW PAST LOWEST LAYER
 ***WARNING***NUZTOP IS 3 AND ALL LAYERS  IN ROW           40  AND COLUMN           76  ARE INACTIVE.
 UNSATURATED FLOW WILL NOT BE ADDED TO ANY LAYER-- SOME WATER MAY FLOW PAST LOWEST LAYER
                                                   Max.-Head-Change                         Max.-Flux-Residual
  Residual-Control   Outer-Iter.   Inner-Iter.     Column Row Layer    Maximum-Head-Change  Column Row Layer    Maximum-Flux-Residual          L2-NORM 
          0                 1           4            36   59     1       0.5180115195E+00      69   30    1         0.1125086879E+03      0.3630731246E+03
          0                 2           4            67   52     1       0.8138150373E+00      69   30    1        -0.1372050190E+03      0.2041575086E+03
          0                 3           2            61   51     1       0.8463260917E-02      69   30    1        -0.5367488786E+01      0.2071709638E+02
          0                 4           2            64   38     1      -0.2554301108E-02      64   38    1        -0.3601409782E+01      0.8832900736E+01
          0                 5           2             5   60     1       0.1182960606E-02      64   38    1        -0.1502038372E+01      0.3571390699E+01
          0                 6           1             5   60     1       0.5746615061E-03      64   38    1        -0.3941904418E+00      0.1491560698E+01

    ------------------------------------------------
       NWT REQUIRED            6 OUTER ITERATIONS 
       AND A TOTAL OF         15 INNER ITERATIONS.
    ------------------------------------------------

 NO OUTPUT CONTROL FOR STRESS PERIOD    3   TIME STEP   29
 ***WARNING***NUZTOP IS 3 AND ALL LAYERS  IN ROW           39  AND COLUMN           76  ARE INACTIVE.
 UNSATURATED FLOW WILL NOT BE ADDED TO ANY LAYER-- SOME WATER MAY FLOW PAST LOWEST LAYER
 ***WARNING***NUZTOP IS 3 AND ALL LAYERS  IN ROW           40  AND COLUMN           76  ARE INACTIVE.
 UNSATURATED FLOW WILL NOT BE ADDED TO ANY LAYER-- SOME WATER MAY FLOW PAST LOWEST LAYER
                                                   Max.-Head-Change                         Max.-Flux-Residual
  Residual-Control   Outer-Iter.   Inner-Iter.     Column Row Layer    Maximum-Head-Change  Column Row Layer    Maximum-Flux-Residual          L2-NORM 
          0                 1           4            36   62     1       0.6718343253E+00      69   29    1         0.1696603370E+03      0.3734715944E+03
          0                 2           4            35   60     1       0.9045353207E+00      35   60    1         0.3031134811E+02      0.6518996497E+02
          0                 3           2             5   60     1       0.4950455173E-02      69   29    1         0.4163082668E+01      0.1929712287E+02
          0                 4           2             5   60     1       0.2404785640E-02      69   29    1         0.1976226271E+01      0.7593806697E+01
          0                 5           2             5   60     1       0.1168017190E-02      69   29    1         0.7759661425E+00      0.3229878372E+01
          0                 6           1             5   60     1       0.5673120327E-03       5   60    1         0.3710586363E+00      0.1461723870E+01

    ------------------------------------------------
       NWT REQUIRED            6 OUTER ITERATIONS 
       AND A TOTAL OF         15 INNER ITERATIONS.
    ------------------------------------------------

 NO OUTPUT CONTROL FOR STRESS PERIOD    3   TIME STEP   30



 STREAM LISTING     PERIOD      3   STEP       30

 LAYER ROW COL. STREAM  RCH.   FLOW INTO    STREAM     FLOW OUT OF   OVRLND.    DIRECT     STREAM      STREAM      STREAM     STREAM  STREAMBED   FLOW TO   CHNG. UNSAT. 
                SEG.NO.  NO.   STRM. RCH.    LOSS       STRM. RCH.   RUNOFF     PRECIP       ET         HEAD        DEPTH      WIDTH  CONDCTNC.   WAT. TAB.

   1   18   62     1     1    0.0000E+00  8.7022E-01   0.0000E+00  8.702E-01  0.000E+00  0.000E+00  2.07300E+03  2.398E-05  3.000E+00  1.909E+03  0.000E+00  0.000E+00
   1   19   63     1     2    0.0000E+00 -5.6540E+01   5.7410E+01  8.702E-01  0.000E+00  0.000E+00  2.06300E+03  1.338E-03  3.000E+00  1.909E+03  0.000E+00  0.000E+00
   1   20   64     1     3    5.7410E+01 -8.4703E+01   1.4298E+02  8.702E-01  0.000E+00  0.000E+00  2.05400E+03  3.097E-03  3.000E+00  1.630E+03  0.000E+00  0.000E+00
   1   21   64     1     4    1.4298E+02 -8.7328E+01   2.3118E+02  8.702E-01  0.000E+00  0.000E+00  2.05101E+03  5.545E-03  3.000E+00  1.630E+03  0.000E+00  0.000E+00
   1   22   65     1     5    2.3118E+02 -1.3508E+01   2.4556E+02  8.702E-01  0.000E+00  0.000E+00  2.04801E+03  5.462E-03  3.000E+00  9.546E+02  0.000E+00  0.000E+00
   1   20   66     2     1    0.0000E+00 -3.9247E+01   3.9247E+01  0.000E+00  0.000E+00  0.000E+00  2.05300E+03  1.503E-03  3.000E+00  1.909E+03  0.000E+00  0.000E+00
   1   21   65     2     2    3.9247E+01  4.5766E-01   3.8789E+01  0.000E+00  0.000E+00  0.000E+00  2.05100E+03  2.286E-03  3.000E+00  1.630E+03  0.000E+00  0.000E+00
   1   22   65     2     3    3.8789E+01 -1.2018E+01   5.0807E+01  0.000E+00  0.000E+00  0.000E+00  2.04800E+03  1.809E-03  3.000E+00  6.750E+02  0.000E+00  0.000E+00
   1   22   65     3     1    2.9637E+02 -9.4159E+00   3.0578E+02  0.000E+00  0.000E+00  0.000E+00  2.04801E+03  5.664E-03  3.000E+00  6.750E+02  0.000E+00  0.000E+00
   1   23   65     3     2    3.0578E+02 -9.4742E+01   4.0052E+02  0.000E+00  0.000E+00  0.000E+00  2.04501E+03  9.996E-03  3.000E+00  1.630E+03  0.000E+00  0.000E+00
   1   24   66     3     3    4.0052E+02 -2.5390E+01   4.2591E+02  0.000E+00  0.000E+00  0.000E+00  2.04538E+03  3.826E-01  3.000E+00  1.909E+03  0.000E+00  0.000E+00
   1   25   67     3     4    4.2591E+02  1.0577E+01   4.1534E+02  0.000E+00  0.000E+00  0.000E+00  2.04501E+03  1.164E-02  3.000E+00  1.909E+03  0.000E+00  0.000E+00
   1   26   68     3     5    4.1534E+02 -3.9442E+00   4.1928E+02  0.000E+00  0.000E+00  0.000E+00  2.04201E+03  1.013E-02  3.000E+00  1.630E+03  0.000E+00  0.000E+00
   1   27   68     3     6    4.1928E+02  9.7776E+01   3.2151E+02  0.000E+00  0.000E+00  0.000E+00  2.04101E+03  8.353E-03  3.000E+00  1.630E+03  9.927E+01 -1.496E+00
   1   28   69     3     7    3.2151E+02  9.7776E+01   2.2373E+02  0.000E+00  0.000E+00  0.000E+00  2.03601E+03  5.645E-03  3.000E+00  1.630E+03  9.968E+01 -1.907E+00
   1   29   69     3     8    2.2373E+02  2.2373E+02   0.0000E+00  0.000E+00  0.000E+00  0.000E+00  2.02900E+03  1.041E-03  3.000E+00  1.350E+03  0.000E+00  0.000E+00
   1   30   69     3     9    0.0000E+00  0.0000E+00   0.0000E+00  0.000E+00  0.000E+00  0.000E+00  2.02300E+03  0.000E+00  3.000E+00  1.630E+03  0.000E+00  0.000E+00
   1   31   70     3    10    0.0000E+00 -1.0573E+02   1.0573E+02  0.000E+00  0.000E+00  0.000E+00  2.01100E+03  1.869E-03  3.000E+00  1.630E+03  0.000E+00  0.000E+00
   1   32   70     3    11    1.0573E+02 -2.1618E+02   3.2191E+02  0.000E+00  0.000E+00  0.000E+00  2.00501E+03  5.209E-03  3.000E+00  1.350E+03  0.000E+00  0.000E+00
   1   33   70     3    12    3.2191E+02  5.3860E+00   3.1652E+02  0.000E+00  0.000E+00  0.000E+00  2.00301E+03  5.407E-03  3.000E+00  1.630E+03  0.000E+00  0.000E+00
   1   34   69     3    13    3.1652E+02 -3.8001E+01   3.5453E+02  0.000E+00  0.000E+00  0.000E+00  1.98600E+03  4.858E-03  3.000E+00  1.630E+03  0.000E+00  0.000E+00
   1   35   69     3    14    3.5453E+02 -5.1252E+01   4.0578E+02  0.000E+00  0.000E+00  0.000E+00  1.97301E+03  5.676E-03  3.000E+00  1.350E+03  0.000E+00  0.000E+00
   1   36   69     3    15    4.0578E+02 -4.3245E+00   4.1010E+02  0.000E+00  0.000E+00  0.000E+00  1.96701E+03  6.489E-03  3.000E+00  1.350E+03  0.000E+00  0.000E+00
   1   37   69     3    16    4.1010E+02  3.2587E+00   4.0684E+02  0.000E+00  0.000E+00  0.000E+00  1.95901E+03  6.494E-03  3.000E+00  1.350E+03  0.000E+00  0.000E+00
   1   38   69     3    17    4.0684E+02  8.1465E+00   3.9870E+02  0.000E+00  0.000E+00  0.000E+00  1.95301E+03  6.966E-03  3.000E+00  1.630E+03  0.000E+00  0.000E+00
   1   39   70     3    18    3.9870E+02 -1.0666E+01   4.0936E+02  0.000E+00  0.000E+00  0.000E+00  1.94601E+03  6.251E-03  3.000E+00  9.546E+02  0.000E+00  0.000E+00
   1   25   49     4     1    0.0000E+00 -1.6482E+02   1.6482E+02  0.000E+00  0.000E+00  0.000E+00  2.03500E+03  2.442E-03  3.000E+00  1.909E+03  0.000E+00  0.000E+00
   1   26   50     4     2    1.6482E+02 -1.0447E+02   2.6928E+02  0.000E+00  0.000E+00  0.000E+00  2.02600E+03  4.737E-03  3.000E+00  1.909E+03  0.000E+00  0.000E+00
   1   27   51     4     3    2.6928E+02 -8.7831E+01   3.5711E+02  0.000E+00  0.000E+00  0.000E+00  2.01901E+03  6.136E-03  3.000E+00  1.630E+03  0.000E+00  0.000E+00
   1   28   51     4     4    3.5711E+02 -1.0130E+02   4.5841E+02  0.000E+00  0.000E+00  0.000E+00  2.01401E+03  7.593E-03  3.000E+00  1.630E+03  0.000E+00  0.000E+00
   1   29   52     4     5    4.5841E+02 -6.2118E+01   5.2053E+02  0.000E+00  0.000E+00  0.000E+00  2.00901E+03  8.472E-03  3.000E+00  1.630E+03  0.000E+00  0.000E+00
   1   30   52     4     6    5.2053E+02 -2.9807E+01   5.5034E+02  0.000E+00  0.000E+00  0.000E+00  2.00401E+03  8.450E-03  3.000E+00  1.350E+03  0.000E+00  0.000E+00
   1   31   52     4     7    5.5034E+02 -3.7139E+01   5.8747E+02  0.000E+00  0.000E+00  0.000E+00  1.99901E+03  9.753E-03  3.000E+00  1.350E+03  0.000E+00  0.000E+00
   1   32   52     4     8    5.8747E+02 -1.3184E+01   6.0066E+02  0.000E+00  0.000E+00  0.000E+00  1.99701E+03  1.018E-02  3.000E+00  1.630E+03  0.000E+00  0.000E+00
   1   33   53     4     9    6.0066E+02 -3.5985E+00   6.0426E+02  0.000E+00  0.000E+00  0.000E+00  1.99101E+03  1.006E-02  3.000E+00  1.909E+03  0.000E+00  0.000E+00
   1   34   54     4    10    6.0426E+02  3.3540E+01   5.7072E+02  0.000E+00  0.000E+00  0.000E+00  1.98701E+03  1.023E-02  3.000E+00  1.909E+03  0.000E+00  0.000E+00
   1   35   55     4    11    5.7072E+02  3.5917E+01   5.3480E+02  0.000E+00  0.000E+00  0.000E+00  1.98201E+03  8.857E-03  3.000E+00  1.630E+03  0.000E+00  0.000E+00
   1   36   55     4    12    5.3480E+02 -6.3259E+01   5.9806E+02  0.000E+00  0.000E+00  0.000E+00  1.97601E+03  7.901E-03  3.000E+00  6.750E+02  0.000E+00  0.000E+00
   1   35   37     5     1    5.3543E+03 -6.7559E+01   5.4218E+03  0.000E+00  0.000E+00  0.000E+00  2.05403E+03  2.643E-02  3.000E+00  9.546E+02  0.000E+00  0.000E+00
   1   34   38     5     2    5.4218E+03 -1.4065E+02   5.5625E+03  0.000E+00  0.000E+00  0.000E+00  2.04603E+03  3.292E-02  3.000E+00  1.909E+03  0.000E+00  0.000E+00
   1   33   39     5     3    5.5625E+03 -2.5586E+02   5.8183E+03  0.000E+00  0.000E+00  0.000E+00  2.03804E+03  3.996E-02  3.000E+00  1.909E+03  0.000E+00  0.000E+00
   1   32   40     5     4    5.8183E+03  9.8612E+01   5.7197E+03  0.000E+00  0.000E+00  0.000E+00  2.03704E+03  3.980E-02  3.000E+00  1.630E+03  0.000E+00  0.000E+00
   1   32   41     5     5    5.7197E+03 -1.4562E+02   5.8653E+03  0.000E+00  0.000E+00  0.000E+00  2.03003E+03  3.339E-02  3.000E+00  1.350E+03  0.000E+00  0.000E+00
   1   32   42     5     6    5.8653E+03 -1.7939E+02   6.0447E+03  0.000E+00  0.000E+00  0.000E+00  2.02504E+03  3.991E-02  3.000E+00  1.350E+03  0.000E+00  0.000E+00
   1   32   43     5     7    6.0447E+03 -7.2613E+01   6.1173E+03  0.000E+00  0.000E+00  0.000E+00  2.02304E+03  4.478E-02  3.000E+00  1.630E+03  0.000E+00  0.000E+00
   1   33   44     5     8    6.1173E+03 -1.6603E+02   6.2834E+03  0.000E+00  0.000E+00  0.000E+00  2.01905E+03  4.536E-02  3.000E+00  1.909E+03  0.000E+00  0.000E+00
   1   34   45     5     9    6.2834E+03 -3.7462E+01   6.3208E+03  0.000E+00  0.000E+00  0.000E+00  2.01604E+03  4.197E-02  3.000E+00  1.630E+03  0.000E+00  0.000E+00
   1   34   46     5    10    6.3208E+03 -1.1567E+02   6.4365E+03  0.000E+00  0.000E+00  0.000E+00  2.01104E+03  3.857E-02  3.000E+00  1.350E+03  0.000E+00  0.000E+00
   1   34   47     5    11    6.4365E+03  3.4347E+00   6.4331E+03  0.000E+00  0.000E+00  0.000E+00  2.00703E+03  3.051E-02  3.000E+00  6.750E+02  0.000E+00  0.000E+00
   1   34   47     6     1    6.4566E+03  1.9129E+00   6.4547E+03  0.000E+00  0.000E+00  0.000E+00  2.00703E+03  2.826E-02  3.000E+00  6.750E+02  0.000E+00  0.000E+00
   1   34   48     6     2    6.4547E+03 -1.4359E+02   6.5983E+03  0.000E+00  0.000E+00  0.000E+00  2.00104E+03  3.705E-02  3.000E+00  1.630E+03  0.000E+00  0.000E+00
   1   35   49     6     3    6.5983E+03 -2.7885E+02   6.8772E+03  0.000E+00  0.000E+00  0.000E+00  1.99404E+03  3.971E-02  3.000E+00  1.630E+03  0.000E+00  0.000E+00
   1   35   50     6     4    6.8772E+03 -2.0958E+02   7.0867E+03  0.000E+00  0.000E+00  0.000E+00  1.99005E+03  4.857E-02  3.000E+00  1.350E+03  0.000E+00  0.000E+00
   1   35   51     6     5    7.0867E+03  2.1482E+01   7.0653E+03  0.000E+00  0.000E+00  0.000E+00  1.98905E+03  4.904E-02  3.000E+00  1.630E+03  0.000E+00  0.000E+00
   1   36   52     6     6    7.0653E+03 -1.2858E+02   7.1938E+03  0.000E+00  0.000E+00  0.000E+00  1.98404E+03  4.362E-02  3.000E+00  1.630E+03  0.000E+00  0.000E+00
   1   36   53     6     7    7.1938E+03 -2.3942E+02   7.4333E+03  0.000E+00  0.000E+00  0.000E+00  1.98006E+03  5.650E-02  3.000E+00  1.630E+03  0.000E+00  0.000E+00
   1   37   54     6     8    7.4333E+03 -4.3502E+01   7.4768E+03  0.000E+00  0.000E+00  0.000E+00  1.98006E+03  5.993E-02  3.000E+00  1.909E+03  0.000E+00  0.000E+00
   1   36   55     6     9    7.4768E+03 -5.3377E+01   7.5301E+03  0.000E+00  0.000E+00  0.000E+00  1.97605E+03  4.570E-02  3.000E+00  9.546E+02  0.000E+00  0.000E+00
   1   36   34     7     1    2.2592E+03 -5.4663E+01   2.3139E+03  0.000E+00  0.000E+00  0.000E+00  2.07701E+03  1.436E-02  3.000E+00  9.546E+02  0.000E+00  0.000E+00
   1   35   35     7     2    2.3139E+03 -1.1710E+02   2.4310E+03  0.000E+00  0.000E+00  0.000E+00  2.06702E+03  1.934E-02  3.000E+00  1.630E+03  0.000E+00  0.000E+00
   1   35   36     7     3    2.4310E+03  1.1390E+01   2.4196E+03  0.000E+00  0.000E+00  0.000E+00  2.06202E+03  1.933E-02  3.000E+00  1.350E+03  0.000E+00  0.000E+00
   1   35   37     7     4    2.4196E+03 -5.5598E+01   2.4752E+03  0.000E+00  0.000E+00  0.000E+00  2.05401E+03  1.484E-02  3.000E+00  6.750E+02  0.000E+00  0.000E+00
   1   52   49     8     1    0.0000E+00 -2.0793E+02   2.0793E+02  0.000E+00  0.000E+00  0.000E+00  2.12100E+03  2.893E-03  3.000E+00  1.909E+03  0.000E+00  0.000E+00
   1   51   48     8     2    2.0793E+02 -2.0867E+02   4.1660E+02  0.000E+00  0.000E+00  0.000E+00  2.11701E+03  8.931E-03  3.000E+00  1.909E+03  0.000E+00  0.000E+00
   1   50   47     8     3    4.1660E+02  9.7776E+01   3.1883E+02  0.000E+00  0.000E+00  0.000E+00  2.11701E+03  7.631E-03  3.000E+00  1.630E+03  9.776E+01  1.217E-02
   1   49   47     8     4    3.1883E+02 -2.2419E+02   5.4302E+02  0.000E+00  0.000E+00  0.000E+00  2.10901E+03  7.849E-03  3.000E+00  1.630E+03  0.000E+00  0.000E+00
   1   48   46     8     5    5.4302E+02  5.0303E-01   5.4252E+02  0.000E+00  0.000E+00  0.000E+00  2.10701E+03  1.187E-02  3.000E+00  1.630E+03  0.000E+00  0.000E+00
   1   47   46     8     6    5.4252E+02  8.8308E+01   4.5421E+02  0.000E+00  0.000E+00  0.000E+00  2.10501E+03  1.066E-02  3.000E+00  1.350E+03  0.000E+00  0.000E+00
   1   46   46     8     7    4.5421E+02  8.1000E+01   3.7321E+02  0.000E+00  0.000E+00  0.000E+00  2.10301E+03  8.438E-03  3.000E+00  1.350E+03  8.115E+01 -1.480E-01
   1   45   46     8     8    3.7321E+02  8.1000E+01   2.9221E+02  0.000E+00  0.000E+00  0.000E+00  2.09901E+03  6.014E-03  3.000E+00  1.350E+03  8.134E+01 -3.414E-01
   1   44   46     8     9    2.9221E+02  8.1000E+01   2.1121E+02  0.000E+00  0.000E+00  0.000E+00  2.09100E+03  4.432E-03  3.000E+00  1.350E+03  8.153E+01 -5.306E-01
   1   43   46     8    10    2.1121E+02  8.1000E+01   1.3021E+02  0.000E+00  0.000E+00  0.000E+00  2.08000E+03  3.511E-03  3.000E+00  1.350E+03  8.174E+01 -7.360E-01
   1   42   46     8    11    1.3021E+02  9.7776E+01   3.2431E+01  0.000E+00  0.000E+00  0.000E+00  2.07200E+03  2.344E-03  3.000E+00  1.630E+03  9.877E+01 -9.937E-01
   1   41   45     8    12    3.2431E+01 -1.9960E+01   5.2392E+01  0.000E+00  0.000E+00  0.000E+00  2.06000E+03  1.639E-03  3.000E+00  1.630E+03  0.000E+00  0.000E+00
   1   40   45     8    13    5.2392E+01  5.2392E+01   0.0000E+00  0.000E+00  0.000E+00  0.000E+00  2.05400E+03  4.261E-04  3.000E+00  1.350E+03  5.303E+01 -6.434E-01
   1   39   45     8    14    0.0000E+00  0.0000E+00   0.0000E+00  0.000E+00  0.000E+00  0.000E+00  2.04600E+03  0.000E+00  3.000E+00  1.350E+03  0.000E+00  0.000E+00
   1   38   45     8    15    0.0000E+00  0.0000E+00   0.0000E+00  0.000E+00  0.000E+00  0.000E+00  2.03500E+03  0.000E+00  3.000E+00  1.350E+03  0.000E+00  0.000E+00
   1   37   45     8    16    0.0000E+00  0.0000E+00   0.0000E+00  0.000E+00  0.000E+00  0.000E+00  2.02700E+03  0.000E+00  3.000E+00  1.630E+03  0.000E+00  0.000E+00
   1   36   46     8    17    0.0000E+00  0.0000E+00   0.0000E+00  0.000E+00  0.000E+00  0.000E+00  2.02100E+03  0.000E+00  3.000E+00  1.630E+03  0.000E+00  0.000E+00
   1   35   46     8    18    0.0000E+00  0.0000E+00   0.0000E+00  0.000E+00  0.000E+00  0.000E+00  2.01400E+03  0.000E+00  3.000E+00  1.630E+03  0.000E+00  0.000E+00
   1   34   47     8    19    0.0000E+00 -2.3580E+01   2.3580E+01  0.000E+00  0.000E+00  0.000E+00  2.00700E+03  7.202E-04  3.000E+00  9.546E+02  0.000E+00  0.000E+00
   1   37   26     9     1    0.0000E+00  0.0000E+00   0.0000E+00  0.000E+00  0.000E+00  0.000E+00  2.14700E+03  0.000E+00  3.000E+00  1.350E+03  0.000E+00  0.000E+00
   1   37   27     9     2    0.0000E+00 -4.2344E+01   4.2344E+01  0.000E+00  0.000E+00  0.000E+00  2.13400E+03  9.659E-04  3.000E+00  1.350E+03  0.000E+00  0.000E+00
   1   37   28     9     3    4.2344E+01 -1.3409E+02   1.7643E+02  0.000E+00  0.000E+00  0.000E+00  2.12500E+03  2.844E-03  3.000E+00  1.630E+03  0.000E+00  0.000E+00
   1   36   29     9     4    1.7643E+02  9.2025E+00   1.6723E+02  0.000E+00  0.000E+00  0.000E+00  2.11500E+03  3.790E-03  3.000E+00  1.630E+03  0.000E+00  0.000E+00
   1   36   30     9     5    1.6723E+02 -8.3679E+01   2.5091E+02  0.000E+00  0.000E+00  0.000E+00  2.10700E+03  4.099E-03  3.000E+00  1.350E+03  0.000E+00  0.000E+00
   1   36   31     9     6    2.5091E+02 -2.0701E+02   4.5792E+02  0.000E+00  0.000E+00  0.000E+00  2.09801E+03  5.729E-03  3.000E+00  1.350E+03  0.000E+00  0.000E+00
   1   36   32     9     7    4.5792E+02 -1.5686E+02   6.1478E+02  0.000E+00  0.000E+00  0.000E+00  2.09101E+03  7.647E-03  3.000E+00  1.350E+03  0.000E+00  0.000E+00
   1   36   33     9     8    6.1478E+02 -1.4678E+02   7.6156E+02  0.000E+00  0.000E+00  0.000E+00  2.08401E+03  8.880E-03  3.000E+00  1.350E+03  0.000E+00  0.000E+00
   1   36   34     9     9    7.6156E+02 -4.3384E+01   8.0494E+02  0.000E+00  0.000E+00  0.000E+00  2.07701E+03  7.354E-03  3.000E+00  6.750E+02  0.000E+00  0.000E+00
   1   58   37    10     1    0.0000E+00 -9.5870E+01   9.5870E+01  0.000E+00  0.000E+00  0.000E+00  2.15000E+03  2.617E-03  3.000E+00  1.350E+03  0.000E+00  0.000E+00
   1   57   37    10     2    9.5870E+01 -8.3747E+01   1.7962E+02  0.000E+00  0.000E+00  0.000E+00  2.14700E+03  4.406E-03  3.000E+00  1.630E+03  0.000E+00  0.000E+00
   1   56   38    10     3    1.7962E+02 -1.5435E+01   1.9505E+02  0.000E+00  0.000E+00  0.000E+00  2.14300E+03  4.915E-03  3.000E+00  1.630E+03  0.000E+00  0.000E+00
   1   55   38    10     4    1.9505E+02 -1.7748E+02   3.7253E+02  0.000E+00  0.000E+00  0.000E+00  2.13801E+03  6.175E-03  3.000E+00  1.350E+03  0.000E+00  0.000E+00
   1   54   38    10     5    3.7253E+02 -1.2129E+02   4.9382E+02  0.000E+00  0.000E+00  0.000E+00  2.13501E+03  8.673E-03  3.000E+00  1.350E+03  0.000E+00  0.000E+00
   1   53   38    10     6    4.9382E+02 -1.1926E+02   6.1308E+02  0.000E+00  0.000E+00  0.000E+00  2.13201E+03  1.005E-02  3.000E+00  1.350E+03  0.000E+00  0.000E+00
   1   52   38    10     7    6.1308E+02 -1.8117E+02   7.9426E+02  0.000E+00  0.000E+00  0.000E+00  2.12901E+03  1.387E-02  3.000E+00  1.630E+03  0.000E+00  0.000E+00
   1   51   39    10     8    7.9426E+02 -4.5956E+00   7.9885E+02  0.000E+00  0.000E+00  0.000E+00  2.12801E+03  1.494E-02  3.000E+00  1.630E+03  0.000E+00  0.000E+00
   1   50   39    10     9    7.9885E+02 -9.0445E+01   8.8930E+02  0.000E+00  0.000E+00  0.000E+00  2.12501E+03  1.308E-02  3.000E+00  1.630E+03  0.000E+00  0.000E+00
   1   49   38    10    10    8.8930E+02 -1.5730E+02   1.0466E+03  0.000E+00  0.000E+00  0.000E+00  2.12101E+03  1.489E-02  3.000E+00  1.909E+03  0.000E+00  0.000E+00
   1   48   37    10    11    1.0466E+03  1.5722E+01   1.0309E+03  0.000E+00  0.000E+00  0.000E+00  2.11801E+03  1.321E-02  3.000E+00  1.909E+03  0.000E+00  0.000E+00
   1   47   36    10    12    1.0309E+03 -3.4457E+02   1.3754E+03  0.000E+00  0.000E+00  0.000E+00  2.10901E+03  1.376E-02  3.000E+00  1.630E+03  0.000E+00  0.000E+00
   1   46   36    10    13    1.3754E+03 -1.3967E+02   1.5151E+03  0.000E+00  0.000E+00  0.000E+00  2.10602E+03  1.706E-02  3.000E+00  1.350E+03  0.000E+00  0.000E+00
   1   45   36    10    14    1.5151E+03 -1.7494E+02   1.6901E+03  0.000E+00  0.000E+00  0.000E+00  2.10202E+03  1.816E-02  3.000E+00  1.350E+03  0.000E+00  0.000E+00
   1   44   36    10    15    1.6901E+03 -1.0221E+02   1.7923E+03  0.000E+00  0.000E+00  0.000E+00  2.09902E+03  1.998E-02  3.000E+00  1.350E+03  0.000E+00  0.000E+00
   1   43   36    10    16    1.7923E+03 -5.7565E+00   1.7980E+03  0.000E+00  0.000E+00  0.000E+00  2.09602E+03  1.907E-02  3.000E+00  1.630E+03  0.000E+00  0.000E+00
   1   42   37    10    17    1.7980E+03  9.7776E+01   1.7003E+03  0.000E+00  0.000E+00  0.000E+00  2.09002E+03  1.580E-02  3.000E+00  1.630E+03  9.782E+01 -4.484E-02
   1   41   37    10    18    1.7003E+03 -2.3503E+02   1.9353E+03  0.000E+00  0.000E+00  0.000E+00  2.08002E+03  1.528E-02  3.000E+00  1.350E+03  0.000E+00  0.000E+00
   1   40   37    10    19    1.9353E+03 -3.3608E+02   2.2714E+03  0.000E+00  0.000E+00  0.000E+00  2.07402E+03  2.097E-02  3.000E+00  1.630E+03  0.000E+00  0.000E+00
   1   39   38    10    20    2.2714E+03 -3.8780E+01   2.3101E+03  0.000E+00  0.000E+00  0.000E+00  2.07102E+03  2.380E-02  3.000E+00  1.630E+03  0.000E+00  0.000E+00
   1   38   38    10    21    2.3101E+03  7.2541E+00   2.3029E+03  0.000E+00  0.000E+00  0.000E+00  2.06702E+03  2.148E-02  3.000E+00  1.630E+03  0.000E+00  0.000E+00
   1   37   37    10    22    2.3029E+03 -3.0609E+02   2.6090E+03  0.000E+00  0.000E+00  0.000E+00  2.06102E+03  2.230E-02  3.000E+00  1.630E+03  0.000E+00  0.000E+00
   1   36   37    10    23    2.6090E+03 -2.1676E+02   2.8257E+03  0.000E+00  0.000E+00  0.000E+00  2.05702E+03  2.492E-02  3.000E+00  1.350E+03  0.000E+00  0.000E+00
   1   35   37    10    24    2.8257E+03 -5.3328E+01   2.8791E+03  0.000E+00  0.000E+00  0.000E+00  2.05402E+03  1.820E-02  3.000E+00  6.750E+02  0.000E+00  0.000E+00
   1   36   55    11     1    8.1282E+03 -4.2182E+01   8.1704E+03  0.000E+00  0.000E+00  0.000E+00  1.97604E+03  3.913E-02  3.000E+00  6.750E+02  0.000E+00  0.000E+00
   1   36   56    11     2    8.1704E+03 -6.3625E+01   8.2340E+03  0.000E+00  0.000E+00  0.000E+00  1.97507E+03  6.598E-02  3.000E+00  1.630E+03  0.000E+00  0.000E+00
   1   37   57    11     3    8.2340E+03 -1.4212E+02   8.3761E+03  0.000E+00  0.000E+00  0.000E+00  1.97307E+03  6.647E-02  3.000E+00  1.630E+03  0.000E+00  0.000E+00
   1   37   58    11     4    8.3761E+03 -9.7379E+01   8.4735E+03  0.000E+00  0.000E+00  0.000E+00  1.97209E+03  8.810E-02  3.000E+00  1.350E+03  0.000E+00  0.000E+00
   1   37   59    11     5    8.4735E+03 -2.9292E+00   8.4764E+03  0.000E+00  0.000E+00  0.000E+00  1.97207E+03  7.181E-02  3.000E+00  1.350E+03  0.000E+00  0.000E+00
   1   37   60    11     6    8.4764E+03 -2.8855E+01   8.5053E+03  0.000E+00  0.000E+00  0.000E+00  1.97006E+03  5.779E-02  3.000E+00  1.630E+03  0.000E+00  0.000E+00
   1   38   61    11     7    8.5053E+03 -8.8384E+01   8.5937E+03  0.000E+00  0.000E+00  0.000E+00  1.96705E+03  5.246E-02  3.000E+00  1.630E+03  0.000E+00  0.000E+00
   1   38   62    11     8    8.5937E+03 -9.7175E+01   8.6908E+03  0.000E+00  0.000E+00  0.000E+00  1.96305E+03  4.794E-02  3.000E+00  6.750E+02  0.000E+00  0.000E+00
   1   51   11    12     1    0.0000E+00 -4.7948E+02   4.7948E+02  0.000E+00  0.000E+00  0.000E+00  2.38700E+03  4.571E-03  3.000E+00  1.909E+03  0.000E+00  0.000E+00
   1   50   12    12     2    4.7948E+02 -6.7159E+01   5.4664E+02  0.000E+00  0.000E+00  0.000E+00  2.37501E+03  6.880E-03  3.000E+00  1.630E+03  0.000E+00  0.000E+00
   1   49   12    12     3    5.4664E+02 -3.9617E+02   9.4281E+02  0.000E+00  0.000E+00  0.000E+00  2.36501E+03  8.989E-03  3.000E+00  1.630E+03  0.000E+00  0.000E+00
   1   48   13    12     4    9.4281E+02 -1.9296E+02   1.1358E+03  0.000E+00  0.000E+00  0.000E+00  2.35601E+03  1.179E-02  3.000E+00  1.630E+03  0.000E+00  0.000E+00
   1   48   14    12     5    1.1358E+03 -1.6839E+02   1.3042E+03  0.000E+00  0.000E+00  0.000E+00  2.35001E+03  1.273E-02  3.000E+00  1.630E+03  0.000E+00  0.000E+00
   1   47   15    12     6    1.3042E+03 -1.7375E+02   1.4779E+03  0.000E+00  0.000E+00  0.000E+00  2.34001E+03  1.404E-02  3.000E+00  1.630E+03  0.000E+00  0.000E+00
   1   47   16    12     7    1.4779E+03 -1.3242E+02   1.6103E+03  0.000E+00  0.000E+00  0.000E+00  2.33502E+03  1.640E-02  3.000E+00  1.630E+03  0.000E+00  0.000E+00
   1   46   17    12     8    1.6103E+03  7.1697E+01   1.5386E+03  0.000E+00  0.000E+00  0.000E+00  2.32902E+03  1.544E-02  3.000E+00  1.630E+03  0.000E+00  0.000E+00
   1   46   18    12     9    1.5386E+03  1.6343E+02   1.3752E+03  0.000E+00  0.000E+00  0.000E+00  2.32101E+03  1.200E-02  3.000E+00  1.350E+03  0.000E+00  0.000E+00
   1   46   19    12    10    1.3752E+03 -1.6645E+02   1.5417E+03  0.000E+00  0.000E+00  0.000E+00  2.30601E+03  1.365E-02  3.000E+00  1.350E+03  0.000E+00  0.000E+00
   1   46   20    12    11    1.5417E+03  9.7776E+01   1.4439E+03  0.000E+00  0.000E+00  0.000E+00  2.30601E+03  1.167E-02  3.000E+00  1.630E+03  0.000E+00  0.000E+00
   1   45   21    12    12    1.4439E+03 -5.7956E+01   1.5018E+03  0.000E+00  0.000E+00  0.000E+00  2.27401E+03  1.026E-02  3.000E+00  1.909E+03  0.000E+00  0.000E+00
   1   44   22    12    13    1.5018E+03 -1.4689E+02   1.6487E+03  0.000E+00  0.000E+00  0.000E+00  2.25001E+03  1.157E-02  3.000E+00  1.909E+03  0.000E+00  0.000E+00
   1   43   23    12    14    1.6487E+03  1.4779E+02   1.5010E+03  0.000E+00  0.000E+00  0.000E+00  2.23101E+03  1.165E-02  3.000E+00  1.909E+03  0.000E+00  0.000E+00
   1   42   24    12    15    1.5010E+03 -8.1701E+01   1.5827E+03  0.000E+00  0.000E+00  0.000E+00  2.20801E+03  1.201E-02  3.000E+00  1.630E+03  0.000E+00  0.000E+00
   1   42   25    12    16    1.5827E+03 -2.1380E+01   1.6040E+03  0.000E+00  0.000E+00  0.000E+00  2.20001E+03  1.320E-02  3.000E+00  1.350E+03  0.000E+00  0.000E+00
   1   42   26    12    17    1.6040E+03  1.2043E+02   1.4836E+03  0.000E+00  0.000E+00  0.000E+00  2.18801E+03  1.147E-02  3.000E+00  1.350E+03  0.000E+00  0.000E+00
   1   42   27    12    18    1.4836E+03 -2.6514E+02   1.7487E+03  0.000E+00  0.000E+00  0.000E+00  2.17001E+03  1.191E-02  3.000E+00  1.350E+03  0.000E+00  0.000E+00
   1   42   28    12    19    1.7487E+03 -9.1813E+01   1.8406E+03  0.000E+00  0.000E+00  0.000E+00  2.15901E+03  1.356E-02  3.000E+00  1.630E+03  0.000E+00  0.000E+00
   1   41   29    12    20    1.8406E+03  1.5189E+02   1.6887E+03  0.000E+00  0.000E+00  0.000E+00  2.14201E+03  1.353E-02  3.000E+00  1.909E+03  0.000E+00  0.000E+00
   1   40   30    12    21    1.6887E+03  5.8028E+01   1.6306E+03  0.000E+00  0.000E+00  0.000E+00  2.12701E+03  1.372E-02  3.000E+00  1.909E+03  0.000E+00  0.000E+00
   1   39   31    12    22    1.6306E+03  1.1455E+02   1.5161E+03  0.000E+00  0.000E+00  0.000E+00  2.11501E+03  1.377E-02  3.000E+00  1.909E+03  1.150E+02 -4.681E-01
   1   38   32    12    23    1.5161E+03  1.1455E+02   1.4015E+03  0.000E+00  0.000E+00  0.000E+00  2.10301E+03  1.284E-02  3.000E+00  1.909E+03  1.150E+02 -4.976E-01
   1   37   33    12    24    1.4015E+03  5.3088E+00   1.3962E+03  0.000E+00  0.000E+00  0.000E+00  2.08901E+03  1.252E-02  3.000E+00  1.909E+03  0.000E+00  0.000E+00
   1   36   34    12    25    1.3962E+03 -5.8048E+01   1.4543E+03  0.000E+00  0.000E+00  0.000E+00  2.07701E+03  1.082E-02  3.000E+00  9.546E+02  0.000E+00  0.000E+00
   1   38   62    13     1    8.8715E+03 -1.0447E+02   8.9760E+03  0.000E+00  0.000E+00  0.000E+00  1.96304E+03  3.712E-02  3.000E+00  6.750E+02  0.000E+00  0.000E+00
   1   38   63    13     2    8.9760E+03 -8.6350E+00   8.9846E+03  0.000E+00  0.000E+00  0.000E+00  1.96543E+03  2.427E+00  3.000E+00  1.350E+03  0.000E+00  0.000E+00
   1   38   64    13     3    8.9846E+03  1.7046E+01   8.9676E+03  0.000E+00  0.000E+00  0.000E+00  1.96543E+03  2.426E+00  3.000E+00  1.350E+03  0.000E+00  0.000E+00
   1   38   65    13     4    8.9676E+03 -4.7185E+01   9.0148E+03  0.000E+00  0.000E+00  0.000E+00  1.96307E+03  6.588E-02  3.000E+00  1.350E+03  0.000E+00  0.000E+00
   1   38   66    13     5    9.0148E+03 -8.5006E+01   9.0998E+03  0.000E+00  0.000E+00  0.000E+00  1.96006E+03  5.677E-02  3.000E+00  1.350E+03  0.000E+00  0.000E+00
   1   38   67    13     6    9.0998E+03 -5.6250E+01   9.1560E+03  0.000E+00  0.000E+00  0.000E+00  1.95805E+03  5.456E-02  3.000E+00  1.630E+03  0.000E+00  0.000E+00
   1   39   68    13     7    9.1560E+03 -2.9489E+01   9.1855E+03  0.000E+00  0.000E+00  0.000E+00  1.95305E+03  4.916E-02  3.000E+00  1.630E+03  0.000E+00  0.000E+00
   1   39   69    13     8    9.1855E+03 -8.7784E+01   9.2733E+03  0.000E+00  0.000E+00  0.000E+00  1.94805E+03  5.190E-02  3.000E+00  1.350E+03  0.000E+00  0.000E+00
   1   39   70    13     9    9.2733E+03  1.8110E+01   9.2552E+03  0.000E+00  0.000E+00  0.000E+00  1.94604E+03  4.425E-02  3.000E+00  6.750E+02  0.000E+00  0.000E+00
   1   46   61    14     1    0.0000E+00  0.0000E+00   0.0000E+00  0.000E+00  0.000E+00  0.000E+00  2.01700E+03  0.000E+00  3.000E+00  1.350E+03  0.000E+00  0.000E+00
   1   45   61    14     2    0.0000E+00  0.0000E+00   0.0000E+00  0.000E+00  0.000E+00  0.000E+00  2.01000E+03  0.000E+00  3.000E+00  1.350E+03  0.000E+00  0.000E+00
   1   44   61    14     3    0.0000E+00  0.0000E+00   0.0000E+00  0.000E+00  0.000E+00  0.000E+00  2.00600E+03  0.000E+00  3.000E+00  1.350E+03  0.000E+00  0.000E+00
   1   43   61    14     4    0.0000E+00  0.0000E+00   0.0000E+00  0.000E+00  0.000E+00  0.000E+00  1.99900E+03  0.000E+00  3.000E+00  1.350E+03  0.000E+00  0.000E+00
   1   42   61    14     5    0.0000E+00  0.0000E+00   0.0000E+00  0.000E+00  0.000E+00  0.000E+00  1.99300E+03  0.000E+00  3.000E+00  1.350E+03  0.000E+00  0.000E+00
   1   41   61    14     6    0.0000E+00  0.0000E+00   0.0000E+00  0.000E+00  0.000E+00  0.000E+00  1.98500E+03  0.000E+00  3.000E+00  1.350E+03  0.000E+00  0.000E+00
   1   40   61    14     7    0.0000E+00  0.0000E+00   0.0000E+00  0.000E+00  0.000E+00  0.000E+00  1.97800E+03  0.000E+00  3.000E+00  1.350E+03  0.000E+00  0.000E+00
   1   39   61    14     8    0.0000E+00  0.0000E+00   0.0000E+00  0.000E+00  0.000E+00  0.000E+00  1.97300E+03  0.000E+00  3.000E+00  1.630E+03  0.000E+00  0.000E+00
   1   38   62    14     9    0.0000E+00 -1.8068E+02   1.8068E+02  0.000E+00  0.000E+00  0.000E+00  1.96300E+03  2.622E-03  3.000E+00  9.546E+02  0.000E+00  0.000E+00
   1   39   70    15     1    9.6646E+03  1.3773E+01   9.6508E+03  0.000E+00  0.000E+00  0.000E+00  1.94604E+03  3.783E-02  3.000E+00  6.750E+02  0.000E+00  0.000E+00
   1   39   71    15     2    9.6508E+03 -1.1540E+02   9.7662E+03  0.000E+00  0.000E+00  0.000E+00  1.94206E+03  6.263E-02  3.000E+00  1.630E+03  0.000E+00  0.000E+00
   1   40   72    15     3    9.7662E+03 -3.3047E+01   9.7992E+03  0.000E+00  0.000E+00  0.000E+00  1.94107E+03  6.727E-02  3.000E+00  1.630E+03  0.000E+00  0.000E+00
   1   40   73    15     4    9.7992E+03 -5.2898E+01   9.8521E+03  0.000E+00  0.000E+00  0.000E+00  1.93806E+03  5.961E-02  3.000E+00  1.350E+03  0.000E+00  0.000E+00
   1   40   74    15     5    9.8521E+03 -3.3592E+01   9.8857E+03  0.000E+00  0.000E+00  0.000E+00  1.93606E+03  6.391E-02  3.000E+00  1.350E+03  0.000E+00  0.000E+00
   1   40   75    15     6    9.8857E+03 -1.8748E+00   9.8876E+03  0.000E+00  0.000E+00  0.000E+00  1.93406E+03  5.665E-02  3.000E+00  6.750E+02  0.000E+00  0.000E+00
   1   40   75    16     1    1.0794E+04 -5.5276E+00   1.0800E+04  0.000E+00  0.000E+00  0.000E+00  1.93405E+03  5.124E-02  3.000E+00  6.750E+02  0.000E+00  0.000E+00
   1   40   76    16     2    1.0800E+04  0.0000E+00   1.0800E+04  0.000E+00  0.000E+00  0.000E+00  1.93307E+03  7.354E-02  3.000E+00  0.000E+00  0.000E+00  0.000E+00
   1   55   73    17     1    0.0000E+00  0.0000E+00   0.0000E+00  0.000E+00  0.000E+00  0.000E+00  2.04100E+03  0.000E+00  3.000E+00  1.350E+03  0.000E+00  0.000E+00
   1   54   73    17     2    0.0000E+00  0.0000E+00   0.0000E+00  0.000E+00  0.000E+00  0.000E+00  2.02900E+03  0.000E+00  3.000E+00  1.350E+03  0.000E+00  0.000E+00
   1   53   73    17     3    0.0000E+00  0.0000E+00   0.0000E+00  0.000E+00  0.000E+00  0.000E+00  2.01700E+03  0.000E+00  3.000E+00  1.350E+03  0.000E+00  0.000E+00
   1   52   73    17     4    0.0000E+00 -5.4612E+01   5.4612E+01  0.000E+00  0.000E+00  0.000E+00  2.01000E+03  1.240E-03  3.000E+00  1.630E+03  0.000E+00  0.000E+00
   1   51   72    17     5    5.4612E+01 -2.4472E+02   2.9933E+02  0.000E+00  0.000E+00  0.000E+00  1.99800E+03  3.925E-03  3.000E+00  1.630E+03  0.000E+00  0.000E+00
   1   50   72    17     6    2.9933E+02 -1.9360E+01   3.1869E+02  0.000E+00  0.000E+00  0.000E+00  1.99301E+03  5.753E-03  3.000E+00  1.350E+03  0.000E+00  0.000E+00
   1   49   72    17     7    3.1869E+02 -8.1528E+01   4.0021E+02  0.000E+00  0.000E+00  0.000E+00  1.98601E+03  6.014E-03  3.000E+00  1.350E+03  0.000E+00  0.000E+00
   1   48   72    17     8    4.0021E+02 -1.2313E+02   5.2335E+02  0.000E+00  0.000E+00  0.000E+00  1.97901E+03  6.990E-03  3.000E+00  1.350E+03  0.000E+00  0.000E+00
   1   47   72    17     9    5.2335E+02 -1.9353E+02   7.1688E+02  0.000E+00  0.000E+00  0.000E+00  1.97201E+03  8.530E-03  3.000E+00  1.350E+03  0.000E+00  0.000E+00
   1   46   72    17    10    7.1688E+02 -2.0930E+01   7.3781E+02  0.000E+00  0.000E+00  0.000E+00  1.96601E+03  9.615E-03  3.000E+00  1.350E+03  0.000E+00  0.000E+00
   1   45   72    17    11    7.3781E+02 -7.8719E+00   7.4568E+02  0.000E+00  0.000E+00  0.000E+00  1.96001E+03  9.828E-03  3.000E+00  1.630E+03  0.000E+00  0.000E+00
   1   44   73    17    12    7.4568E+02 -2.4930E+01   7.7061E+02  0.000E+00  0.000E+00  0.000E+00  1.95201E+03  1.018E-02  3.000E+00  1.630E+03  0.000E+00  0.000E+00
   1   43   73    17    13    7.7061E+02 -4.4151E+01   8.1476E+02  0.000E+00  0.000E+00  0.000E+00  1.94701E+03  1.143E-02  3.000E+00  1.350E+03  0.000E+00  0.000E+00
   1   42   73    17    14    8.1476E+02 -6.4771E+00   8.2124E+02  0.000E+00  0.000E+00  0.000E+00  1.94401E+03  1.190E-02  3.000E+00  1.630E+03  0.000E+00  0.000E+00
   1   41   74    17    15    8.2124E+02 -4.0738E+01   8.6197E+02  0.000E+00  0.000E+00  0.000E+00  1.93801E+03  1.230E-02  3.000E+00  1.909E+03  0.000E+00  0.000E+00
   1   40   75    17    16    8.6197E+02 -4.4637E+01   9.0661E+02  0.000E+00  0.000E+00  0.000E+00  1.93401E+03  1.267E-02  3.000E+00  9.546E+02  0.000E+00  0.000E+00
   1   37   55    18     1    0.0000E+00  0.0000E+00   0.0000E+00  0.000E+00  0.000E+00  0.000E+00  2.00700E+03  0.000E+00  3.000E+00  1.630E+03  0.000E+00  0.000E+00
   1   36   54    19     1    0.0000E+00  0.0000E+00   0.0000E+00  0.000E+00  0.000E+00  0.000E+00  2.00700E+03  0.000E+00  3.000E+00  1.630E+03  0.000E+00  0.000E+00



1
  VOLUMETRIC BUDGET FOR UNSATURATED ZONE BENEATH STREAMS AT END OF TIME STEP    30 STRESS PERIOD   3
  ------------------------------------------------------------------------------------------------

    CUMULATIVE VOLUMES             L**3    RATES FOR THIS TIME STEP         L**3/T
    ------------------                     ------------------------


          STREAM LOSS =        68262.2188            STREAM LOSS =         1192.1479
    CHANGE IN STORAGE =          261.0871      CHANGE IN STORAGE =           -7.7943
       RECHARGE TO GW =        68000.9844         RECHARGE TO GW =         1199.9423

             TOTAL IN =        68262.2188               TOTAL IN =         1199.9423

            TOTAL OUT =        68262.0703              TOTAL OUT =         1199.9423

             IN - OUT =            0.1484               IN - OUT =            0.0000

  PERCENT DISCREPANCY =            0.00      PERCENT DISCREPANCY =             0.00



 ***WARNING***NUZTOP IS 3 AND ALL LAYERS  IN ROW           39  AND COLUMN           76  ARE INACTIVE.
 UNSATURATED FLOW WILL NOT BE ADDED TO ANY LAYER-- SOME WATER MAY FLOW PAST LOWEST LAYER
 ***WARNING***NUZTOP IS 3 AND ALL LAYERS  IN ROW           40  AND COLUMN           76  ARE INACTIVE.
 UNSATURATED FLOW WILL NOT BE ADDED TO ANY LAYER-- SOME WATER MAY FLOW PAST LOWEST LAYER


UNSATURATED ZONE PACKAGE VOLUMETRIC BUDGET FOR  TIME STEP    30 STRESS PERIOD    3
  ------------------------------------------------------------------------------



     CUMULATIVE VOLUMES      L**3       RATES FOR THIS TIME STEP      L**3/T
     ------------------                 ------------------------

           IN:                                      IN:
           ---                                      ---
        INFILTRATION =       26653.0419          INFILTRATION =       0.0000E+00

          OUT:                                     OUT:
          ----                                     ----
              UZF ET =      657441.3998                UZF ET =           9.3601
        UZF RECHARGE =     1282757.5716          UZF RECHARGE =       17361.5208

            IN - OUT =    -1913545.9295              IN - OUT =      -17370.8809

          STORAGE:                                 STORAGE:
          --------                                 --------
      STORAGE CHANGE =    -1911574.0294        STORAGE CHANGE =      -17370.7164

 PERCENT DISCREPANCY IS DIFFERENCE BETWEEN IN-OUT MINUS CHANGE IN STORAGE
 DIVIDED BY THE AVERAGE OF IN AND OUT TIMES 100

 PERCENT DISCREPANCY =          -0.03     PERCENT DISCREPANCY =          -0.00






1
  VOLUMETRIC BUDGET FOR AGRICULTURAL FIELDS AT  END OF TIME STEP   30, STRESS PERIOD   3
  ------------------------------------------------------------------------------

     CUMULATIVE VOLUMES      L**3       RATES FOR THIS TIME STEP      L**3/T
     ------------------                 ------------------------

           IN:                                      IN:
           ---                                      ---
               AG WELLS  =           0.0000                 AG WELLS  =          -0.0000
      DIVERSION SEGMENTS =           0.0000        DIVERSION SEGMENTS =           0.0000
       IRRIGATION PONDS  =           0.0000         IRRIGATION PONDS  =           0.0000
           GW IRRIGATION =           0.0000             GW IRRIGATION =           0.0000
           SW IRRIGATION =           0.0000             SW IRRIGATION =           0.0000
        SYSTEM LOSSES GW =           0.0000          SYSTEM LOSSES GW =           0.0000
        SYSTEM LOSSES SW =           0.0000          SYSTEM LOSSES SW =          -0.0000

                TOTAL IN =           0.0000                  TOTAL IN =           0.0000

          OUT:                                     OUT:
          ----                                     ----
               AG WELLS  =           0.0000                 AG WELLS  =           0.0000
      DIVERSION SEGMENTS =           0.0000        DIVERSION SEGMENTS =           0.0000
       IRRIGATION PONDS  =           0.0000         IRRIGATION PONDS  =           0.0000
           GW IRRIGATION =           0.0000             GW IRRIGATION =           0.0000
           SW IRRIGATION =           0.0000             SW IRRIGATION =           0.0000
        SYSTEM LOSSES GW =           0.0000          SYSTEM LOSSES GW =           0.0000
        SYSTEM LOSSES SW =           0.0000          SYSTEM LOSSES SW =           0.0000

               TOTAL OUT =           0.0000                 TOTAL OUT =           0.0000

                IN - OUT =           0.0000                  IN - OUT =           0.0000

     PERCENT DISCREPANCY =           0.00         PERCENT DISCREPANCY =           0.00



1
  VOLUMETRIC BUDGET FOR ENTIRE MODEL AT END OF TIME STEP   30, STRESS PERIOD   3
  ------------------------------------------------------------------------------

     CUMULATIVE VOLUMES      L**3       RATES FOR THIS TIME STEP      L**3/T
     ------------------                 ------------------------

           IN:                                      IN:
           ---                                      ---
             STORAGE     =      103252.4844               STORAGE     =        2867.8301
       CONSTANT HEAD     =           0.0000         CONSTANT HEAD     =           0.0000
      STREAM LEAKAGE     =      173740.9844        STREAM LEAKAGE     =        2547.1409
        UZF RECHARGE     =     1282771.6250          UZF RECHARGE     =       17361.5312
               GW ET     =           0.0000                 GW ET     =           0.0000
     SURFACE LEAKAGE     =           0.0000       SURFACE LEAKAGE     =           0.0000
           AG WELLS      =           0.0000             AG WELLS      =           0.0000

                TOTAL IN =     1559765.1250                  TOTAL IN =       22776.5020

          OUT:                                     OUT:
          ----                                     ----
             STORAGE     =      571556.1250               STORAGE     =        8807.3506
       CONSTANT HEAD     =        2233.3218         CONSTANT HEAD     =          35.6959
      STREAM LEAKAGE     =      726448.3125        STREAM LEAKAGE     =       13334.7432
        UZF RECHARGE     =           0.0000          UZF RECHARGE     =           0.0000
               GW ET     =      254742.4375                 GW ET     =         477.2860
     SURFACE LEAKAGE     =        4645.1914       SURFACE LEAKAGE     =         119.8373
           AG WELLS      =           0.0000             AG WELLS      =           0.0000

               TOTAL OUT =     1559625.5000                 TOTAL OUT =       22774.9121

                IN - OUT =         139.6250                  IN - OUT =           1.5898

     PERCENT DISCREPANCY =           0.01         PERCENT DISCREPANCY =           0.01






         TIME SUMMARY AT END OF TIME STEP   30 IN STRESS PERIOD    3
                    SECONDS     MINUTES      HOURS       DAYS        YEARS
                    -----------------------------------------------------------
   TIME STEP LENGTH  86400.      1440.0      24.000      1.0000     2.73785E-03
 STRESS PERIOD TIME 2.59200E+06  43200.      720.00      30.000     8.21355E-02
         TOTAL TIME 5.35680E+06  89280.      1488.0      62.000     0.16975    
1
1
                            STRESS PERIOD NO.    4, LENGTH =   31.00000    
                            -----------------------------------------------

                              NUMBER OF TIME STEPS =    31

                               MULTIPLIER FOR DELT =     1.000

                            INITIAL TIME STEP SIZE =   1.000000    
 USING INFILTRATION RATE FROM PREVIOUS STRESS 
 PERIOD.CURRENT PERIOD IS:            4

USING ET RATE FROM PREVIOUS STRESS PERIOD. CURRENT PERIOD IS:       4

 USING ET EXTINCTION DEPTH FROM PREVIOUS STRESS PERIOD. CURRENT PERIOD IS:       4

 USING EXTINCTION WATER CONTENT FROM PREVIOUS STRESS PERIOD. CURRENT PERIOD IS:       4

 PROCESSING AG STRESS PERIOD DATA

 READING AG STRESS PERIOD DATA

 READING IRRIGATION POND

 END PROCESSING AG STRESS PERIOD DATA OPTIONS
                                                   Max.-Head-Change                         Max.-Flux-Residual
  Residual-Control   Outer-Iter.   Inner-Iter.     Column Row Layer    Maximum-Head-Change  Column Row Layer    Maximum-Flux-Residual          L2-NORM 
          0                 1           5            68   52     1       0.1143781005E+01      69   29    1         0.1689786754E+03      0.3755423191E+03
          0                 2           4            61   34     1       0.2491727294E+01      61   34    1         0.1440158642E+02      0.6226726111E+02
          0                 3           2            61   34     1      -0.5286599828E-02      63   38    1         0.3921869546E+01      0.1981767319E+02
          0                 4           2            63   38     1       0.3115359204E-02      63   38    1         0.4399546058E+01      0.9532229621E+01
          0                 5           2            64   38     1       0.1351943726E-02      64   38    1         0.1914655888E+01      0.3894988571E+01
          0                 6           1             5   60     1       0.5699499393E-03      64   38    1         0.5439432024E+00      0.1561880817E+01

    ------------------------------------------------
       NWT REQUIRED            6 OUTER ITERATIONS 
       AND A TOTAL OF         16 INNER ITERATIONS.
    ------------------------------------------------

 OUTPUT CONTROL FOR STRESS PERIOD    4   TIME STEP    1
    PRINT BUDGET
    SAVE BUDGET
    SAVE HEAD FOR ALL LAYERS



 STREAM LISTING     PERIOD      4   STEP        1

 LAYER ROW COL. STREAM  RCH.   FLOW INTO    STREAM     FLOW OUT OF   OVRLND.    DIRECT     STREAM      STREAM      STREAM     STREAM  STREAMBED   FLOW TO   CHNG. UNSAT. 
                SEG.NO.  NO.   STRM. RCH.    LOSS       STRM. RCH.   RUNOFF     PRECIP       ET         HEAD        DEPTH      WIDTH  CONDCTNC.   WAT. TAB.

   1   18   62     1     1    0.0000E+00  8.7022E-01   0.0000E+00  8.702E-01  0.000E+00  0.000E+00  2.07300E+03  2.398E-05  3.000E+00  1.909E+03  0.000E+00  0.000E+00
   1   19   63     1     2    0.0000E+00 -5.7221E+01   5.8091E+01  8.702E-01  0.000E+00  0.000E+00  2.06300E+03  1.348E-03  3.000E+00  1.909E+03  0.000E+00  0.000E+00
   1   20   64     1     3    5.8091E+01 -8.5365E+01   1.4433E+02  8.702E-01  0.000E+00  0.000E+00  2.05400E+03  3.116E-03  3.000E+00  1.630E+03  0.000E+00  0.000E+00
   1   21   64     1     4    1.4433E+02 -8.8031E+01   2.3323E+02  8.702E-01  0.000E+00  0.000E+00  2.05101E+03  5.576E-03  3.000E+00  1.630E+03  0.000E+00  0.000E+00
   1   22   65     1     5    2.3323E+02 -1.3700E+01   2.4780E+02  8.702E-01  0.000E+00  0.000E+00  2.04801E+03  5.492E-03  3.000E+00  9.546E+02  0.000E+00  0.000E+00
   1   20   66     2     1    0.0000E+00 -3.9944E+01   3.9944E+01  0.000E+00  0.000E+00  0.000E+00  2.05300E+03  1.519E-03  3.000E+00  1.909E+03  0.000E+00  0.000E+00
   1   21   65     2     2    3.9944E+01  3.7288E-02   3.9907E+01  0.000E+00  0.000E+00  0.000E+00  2.05100E+03  2.319E-03  3.000E+00  1.630E+03  0.000E+00  0.000E+00
   1   22   65     2     3    3.9907E+01 -1.2154E+01   5.2060E+01  0.000E+00  0.000E+00  0.000E+00  2.04800E+03  1.838E-03  3.000E+00  6.750E+02  0.000E+00  0.000E+00
   1   22   65     3     1    2.9986E+02 -9.5442E+00   3.0940E+02  0.000E+00  0.000E+00  0.000E+00  2.04801E+03  5.704E-03  3.000E+00  6.750E+02  0.000E+00  0.000E+00
   1   23   65     3     2    3.0940E+02 -9.5585E+01   4.0499E+02  0.000E+00  0.000E+00  0.000E+00  2.04501E+03  1.006E-02  3.000E+00  1.630E+03  0.000E+00  0.000E+00
   1   24   66     3     3    4.0499E+02 -2.5918E+01   4.3091E+02  0.000E+00  0.000E+00  0.000E+00  2.04539E+03  3.852E-01  3.000E+00  1.909E+03  0.000E+00  0.000E+00
   1   25   67     3     4    4.3091E+02  1.0124E+01   4.2078E+02  0.000E+00  0.000E+00  0.000E+00  2.04501E+03  1.173E-02  3.000E+00  1.909E+03  0.000E+00  0.000E+00
   1   26   68     3     5    4.2078E+02 -4.6485E+00   4.2543E+02  0.000E+00  0.000E+00  0.000E+00  2.04201E+03  1.022E-02  3.000E+00  1.630E+03  0.000E+00  0.000E+00
   1   27   68     3     6    4.2543E+02  9.7776E+01   3.2765E+02  0.000E+00  0.000E+00  0.000E+00  2.04101E+03  8.437E-03  3.000E+00  1.630E+03  9.926E+01 -1.481E+00
   1   28   69     3     7    3.2765E+02  9.7776E+01   2.2988E+02  0.000E+00  0.000E+00  0.000E+00  2.03601E+03  5.722E-03  3.000E+00  1.630E+03  9.977E+01 -1.999E+00
   1   29   69     3     8    2.2988E+02  2.2988E+02   0.0000E+00  0.000E+00  0.000E+00  0.000E+00  2.02900E+03  1.058E-03  3.000E+00  1.350E+03  0.000E+00  0.000E+00
   1   30   69     3     9    0.0000E+00  0.0000E+00   0.0000E+00  0.000E+00  0.000E+00  0.000E+00  2.02300E+03  0.000E+00  3.000E+00  1.630E+03  0.000E+00  0.000E+00
   1   31   70     3    10    0.0000E+00 -1.0646E+02   1.0646E+02  0.000E+00  0.000E+00  0.000E+00  2.01100E+03  1.876E-03  3.000E+00  1.630E+03  0.000E+00  0.000E+00
   1   32   70     3    11    1.0646E+02 -2.1652E+02   3.2299E+02  0.000E+00  0.000E+00  0.000E+00  2.00501E+03  5.222E-03  3.000E+00  1.350E+03  0.000E+00  0.000E+00
   1   33   70     3    12    3.2299E+02  5.0846E+00   3.1790E+02  0.000E+00  0.000E+00  0.000E+00  2.00301E+03  5.420E-03  3.000E+00  1.630E+03  0.000E+00  0.000E+00
   1   34   69     3    13    3.1790E+02 -3.8418E+01   3.5632E+02  0.000E+00  0.000E+00  0.000E+00  1.98600E+03  4.872E-03  3.000E+00  1.630E+03  0.000E+00  0.000E+00
   1   35   69     3    14    3.5632E+02 -5.1637E+01   4.0796E+02  0.000E+00  0.000E+00  0.000E+00  1.97301E+03  5.694E-03  3.000E+00  1.350E+03  0.000E+00  0.000E+00
   1   36   69     3    15    4.0796E+02 -4.6863E+00   4.1264E+02  0.000E+00  0.000E+00  0.000E+00  1.96701E+03  6.511E-03  3.000E+00  1.350E+03  0.000E+00  0.000E+00
   1   37   69     3    16    4.1264E+02  2.8870E+00   4.0976E+02  0.000E+00  0.000E+00  0.000E+00  1.95901E+03  6.520E-03  3.000E+00  1.350E+03  0.000E+00  0.000E+00
   1   38   69     3    17    4.0976E+02  7.6806E+00   4.0208E+02  0.000E+00  0.000E+00  0.000E+00  1.95301E+03  6.999E-03  3.000E+00  1.630E+03  0.000E+00  0.000E+00
   1   39   70     3    18    4.0208E+02 -1.0999E+01   4.1308E+02  0.000E+00  0.000E+00  0.000E+00  1.94601E+03  6.284E-03  3.000E+00  9.546E+02  0.000E+00  0.000E+00
   1   25   49     4     1    0.0000E+00 -1.6583E+02   1.6583E+02  0.000E+00  0.000E+00  0.000E+00  2.03500E+03  2.451E-03  3.000E+00  1.909E+03  0.000E+00  0.000E+00
   1   26   50     4     2    1.6583E+02 -1.0497E+02   2.7080E+02  0.000E+00  0.000E+00  0.000E+00  2.02600E+03  4.754E-03  3.000E+00  1.909E+03  0.000E+00  0.000E+00
   1   27   51     4     3    2.7080E+02 -8.8286E+01   3.5909E+02  0.000E+00  0.000E+00  0.000E+00  2.01901E+03  6.157E-03  3.000E+00  1.630E+03  0.000E+00  0.000E+00
   1   28   51     4     4    3.5909E+02 -1.0183E+02   4.6092E+02  0.000E+00  0.000E+00  0.000E+00  2.01401E+03  7.618E-03  3.000E+00  1.630E+03  0.000E+00  0.000E+00
   1   29   52     4     5    4.6092E+02 -6.2377E+01   5.2329E+02  0.000E+00  0.000E+00  0.000E+00  2.00901E+03  8.500E-03  3.000E+00  1.630E+03  0.000E+00  0.000E+00
   1   30   52     4     6    5.2329E+02 -3.0114E+01   5.5341E+02  0.000E+00  0.000E+00  0.000E+00  2.00401E+03  8.478E-03  3.000E+00  1.350E+03  0.000E+00  0.000E+00
   1   31   52     4     7    5.5341E+02 -3.7438E+01   5.9085E+02  0.000E+00  0.000E+00  0.000E+00  1.99901E+03  9.786E-03  3.000E+00  1.350E+03  0.000E+00  0.000E+00
   1   32   52     4     8    5.9085E+02 -1.3763E+01   6.0461E+02  0.000E+00  0.000E+00  0.000E+00  1.99701E+03  1.021E-02  3.000E+00  1.630E+03  0.000E+00  0.000E+00
   1   33   53     4     9    6.0461E+02 -3.9478E+00   6.0856E+02  0.000E+00  0.000E+00  0.000E+00  1.99101E+03  1.011E-02  3.000E+00  1.909E+03  0.000E+00  0.000E+00
   1   34   54     4    10    6.0856E+02  3.3429E+01   5.7513E+02  0.000E+00  0.000E+00  0.000E+00  1.98701E+03  1.028E-02  3.000E+00  1.909E+03  0.000E+00  0.000E+00
   1   35   55     4    11    5.7513E+02  3.5615E+01   5.3951E+02  0.000E+00  0.000E+00  0.000E+00  1.98201E+03  8.901E-03  3.000E+00  1.630E+03  0.000E+00  0.000E+00
   1   36   55     4    12    5.3951E+02 -6.3538E+01   6.0305E+02  0.000E+00  0.000E+00  0.000E+00  1.97601E+03  7.942E-03  3.000E+00  6.750E+02  0.000E+00  0.000E+00
   1   35   37     5     1    5.3951E+03 -6.7796E+01   5.4629E+03  0.000E+00  0.000E+00  0.000E+00  2.05403E+03  2.655E-02  3.000E+00  9.546E+02  0.000E+00  0.000E+00
   1   34   38     5     2    5.4629E+03 -1.4108E+02   5.6039E+03  0.000E+00  0.000E+00  0.000E+00  2.04603E+03  3.306E-02  3.000E+00  1.909E+03  0.000E+00  0.000E+00
   1   33   39     5     3    5.6039E+03 -2.5643E+02   5.8604E+03  0.000E+00  0.000E+00  0.000E+00  2.03804E+03  4.013E-02  3.000E+00  1.909E+03  0.000E+00  0.000E+00
   1   32   40     5     4    5.8604E+03  9.8355E+01   5.7620E+03  0.000E+00  0.000E+00  0.000E+00  2.03704E+03  3.998E-02  3.000E+00  1.630E+03  0.000E+00  0.000E+00
   1   32   41     5     5    5.7620E+03 -1.4627E+02   5.9083E+03  0.000E+00  0.000E+00  0.000E+00  2.03003E+03  3.354E-02  3.000E+00  1.350E+03  0.000E+00  0.000E+00
   1   32   42     5     6    5.9083E+03 -1.8010E+02   6.0884E+03  0.000E+00  0.000E+00  0.000E+00  2.02504E+03  4.008E-02  3.000E+00  1.350E+03  0.000E+00  0.000E+00
   1   32   43     5     7    6.0884E+03 -7.3232E+01   6.1616E+03  0.000E+00  0.000E+00  0.000E+00  2.02304E+03  4.498E-02  3.000E+00  1.630E+03  0.000E+00  0.000E+00
   1   33   44     5     8    6.1616E+03 -1.6704E+02   6.3287E+03  0.000E+00  0.000E+00  0.000E+00  2.01905E+03  4.556E-02  3.000E+00  1.909E+03  0.000E+00  0.000E+00
   1   34   45     5     9    6.3287E+03 -3.8304E+01   6.3670E+03  0.000E+00  0.000E+00  0.000E+00  2.01604E+03  4.215E-02  3.000E+00  1.630E+03  0.000E+00  0.000E+00
   1   34   46     5    10    6.3670E+03 -1.1629E+02   6.4832E+03  0.000E+00  0.000E+00  0.000E+00  2.01104E+03  3.873E-02  3.000E+00  1.350E+03  0.000E+00  0.000E+00
   1   34   47     5    11    6.4832E+03  3.3009E+00   6.4799E+03  0.000E+00  0.000E+00  0.000E+00  2.00703E+03  3.064E-02  3.000E+00  6.750E+02  0.000E+00  0.000E+00
   1   34   47     6     1    6.5038E+03  1.7731E+00   6.5021E+03  0.000E+00  0.000E+00  0.000E+00  2.00703E+03  2.838E-02  3.000E+00  6.750E+02  0.000E+00  0.000E+00
   1   34   48     6     2    6.5021E+03 -1.4393E+02   6.6460E+03  0.000E+00  0.000E+00  0.000E+00  2.00104E+03  3.721E-02  3.000E+00  1.630E+03  0.000E+00  0.000E+00
   1   35   49     6     3    6.6460E+03 -2.7963E+02   6.9256E+03  0.000E+00  0.000E+00  0.000E+00  1.99404E+03  3.988E-02  3.000E+00  1.630E+03  0.000E+00  0.000E+00
   1   35   50     6     4    6.9256E+03 -2.1025E+02   7.1359E+03  0.000E+00  0.000E+00  0.000E+00  1.99005E+03  4.877E-02  3.000E+00  1.350E+03  0.000E+00  0.000E+00
   1   35   51     6     5    7.1359E+03  2.0969E+01   7.1149E+03  0.000E+00  0.000E+00  0.000E+00  1.98905E+03  4.925E-02  3.000E+00  1.630E+03  0.000E+00  0.000E+00
   1   36   52     6     6    7.1149E+03 -1.3020E+02   7.2451E+03  0.000E+00  0.000E+00  0.000E+00  1.98404E+03  4.381E-02  3.000E+00  1.630E+03  0.000E+00  0.000E+00
   1   36   53     6     7    7.2451E+03 -2.3991E+02   7.4850E+03  0.000E+00  0.000E+00  0.000E+00  1.98006E+03  5.673E-02  3.000E+00  1.630E+03  0.000E+00  0.000E+00
   1   37   54     6     8    7.4850E+03 -4.4492E+01   7.5295E+03  0.000E+00  0.000E+00  0.000E+00  1.98006E+03  6.018E-02  3.000E+00  1.909E+03  0.000E+00  0.000E+00
   1   36   55     6     9    7.5295E+03 -5.3625E+01   7.5831E+03  0.000E+00  0.000E+00  0.000E+00  1.97605E+03  4.590E-02  3.000E+00  9.546E+02  0.000E+00  0.000E+00
   1   36   34     7     1    2.2801E+03 -5.4919E+01   2.3351E+03  0.000E+00  0.000E+00  0.000E+00  2.07701E+03  1.444E-02  3.000E+00  9.546E+02  0.000E+00  0.000E+00
   1   35   35     7     2    2.3351E+03 -1.1770E+02   2.4528E+03  0.000E+00  0.000E+00  0.000E+00  2.06702E+03  1.944E-02  3.000E+00  1.630E+03  0.000E+00  0.000E+00
   1   35   36     7     3    2.4528E+03  1.0778E+01   2.4420E+03  0.000E+00  0.000E+00  0.000E+00  2.06202E+03  1.944E-02  3.000E+00  1.350E+03  0.000E+00  0.000E+00
   1   35   37     7     4    2.4420E+03 -5.5791E+01   2.4978E+03  0.000E+00  0.000E+00  0.000E+00  2.05401E+03  1.492E-02  3.000E+00  6.750E+02  0.000E+00  0.000E+00
   1   52   49     8     1    0.0000E+00 -2.0861E+02   2.0861E+02  0.000E+00  0.000E+00  0.000E+00  2.12100E+03  2.899E-03  3.000E+00  1.909E+03  0.000E+00  0.000E+00
   1   51   48     8     2    2.0861E+02 -2.0921E+02   4.1781E+02  0.000E+00  0.000E+00  0.000E+00  2.11701E+03  8.947E-03  3.000E+00  1.909E+03  0.000E+00  0.000E+00
   1   50   47     8     3    4.1781E+02  9.7776E+01   3.2004E+02  0.000E+00  0.000E+00  0.000E+00  2.11701E+03  7.646E-03  3.000E+00  1.630E+03  9.776E+01  1.107E-02
   1   49   47     8     4    3.2004E+02 -2.2481E+02   5.4484E+02  0.000E+00  0.000E+00  0.000E+00  2.10901E+03  7.866E-03  3.000E+00  1.630E+03  0.000E+00  0.000E+00
   1   48   46     8     5    5.4484E+02  2.2853E-03   5.4484E+02  0.000E+00  0.000E+00  0.000E+00  2.10701E+03  1.189E-02  3.000E+00  1.630E+03  0.000E+00  0.000E+00
   1   47   46     8     6    5.4484E+02  8.7885E+01   4.5696E+02  0.000E+00  0.000E+00  0.000E+00  2.10501E+03  1.069E-02  3.000E+00  1.350E+03  0.000E+00  0.000E+00
   1   46   46     8     7    4.5696E+02  8.1000E+01   3.7596E+02  0.000E+00  0.000E+00  0.000E+00  2.10301E+03  8.472E-03  3.000E+00  1.350E+03  8.115E+01 -1.483E-01
   1   45   46     8     8    3.7596E+02  8.1000E+01   2.9496E+02  0.000E+00  0.000E+00  0.000E+00  2.09901E+03  6.044E-03  3.000E+00  1.350E+03  8.134E+01 -3.396E-01
   1   44   46     8     9    2.9496E+02  8.1000E+01   2.1396E+02  0.000E+00  0.000E+00  0.000E+00  2.09100E+03  4.461E-03  3.000E+00  1.350E+03  8.153E+01 -5.282E-01
   1   43   46     8    10    2.1396E+02  8.1000E+01   1.3296E+02  0.000E+00  0.000E+00  0.000E+00  2.08000E+03  3.545E-03  3.000E+00  1.350E+03  8.173E+01 -7.291E-01
   1   42   46     8    11    1.3296E+02  9.7776E+01   3.5180E+01  0.000E+00  0.000E+00  0.000E+00  2.07200E+03  2.391E-03  3.000E+00  1.630E+03  9.874E+01 -9.639E-01
   1   41   45     8    12    3.5180E+01 -2.2607E+01   5.7787E+01  0.000E+00  0.000E+00  0.000E+00  2.06000E+03  1.731E-03  3.000E+00  1.630E+03  0.000E+00  0.000E+00
   1   40   45     8    13    5.7787E+01  5.7787E+01   0.0000E+00  0.000E+00  0.000E+00  0.000E+00  2.05400E+03  4.519E-04  3.000E+00  1.350E+03  5.778E+01  4.801E-03
   1   39   45     8    14    0.0000E+00  0.0000E+00   0.0000E+00  0.000E+00  0.000E+00  0.000E+00  2.04600E+03  0.000E+00  3.000E+00  1.350E+03  0.000E+00  0.000E+00
   1   38   45     8    15    0.0000E+00  0.0000E+00   0.0000E+00  0.000E+00  0.000E+00  0.000E+00  2.03500E+03  0.000E+00  3.000E+00  1.350E+03  0.000E+00  0.000E+00
   1   37   45     8    16    0.0000E+00  0.0000E+00   0.0000E+00  0.000E+00  0.000E+00  0.000E+00  2.02700E+03  0.000E+00  3.000E+00  1.630E+03  0.000E+00  0.000E+00
   1   36   46     8    17    0.0000E+00  0.0000E+00   0.0000E+00  0.000E+00  0.000E+00  0.000E+00  2.02100E+03  0.000E+00  3.000E+00  1.630E+03  0.000E+00  0.000E+00
   1   35   46     8    18    0.0000E+00  0.0000E+00   0.0000E+00  0.000E+00  0.000E+00  0.000E+00  2.01400E+03  0.000E+00  3.000E+00  1.630E+03  0.000E+00  0.000E+00
   1   34   47     8    19    0.0000E+00 -2.3891E+01   2.3891E+01  0.000E+00  0.000E+00  0.000E+00  2.00700E+03  7.259E-04  3.000E+00  9.546E+02  0.000E+00  0.000E+00
   1   37   26     9     1    0.0000E+00  0.0000E+00   0.0000E+00  0.000E+00  0.000E+00  0.000E+00  2.14700E+03  0.000E+00  3.000E+00  1.350E+03  0.000E+00  0.000E+00
   1   37   27     9     2    0.0000E+00 -4.3452E+01   4.3452E+01  0.000E+00  0.000E+00  0.000E+00  2.13400E+03  9.811E-04  3.000E+00  1.350E+03  0.000E+00  0.000E+00
   1   37   28     9     3    4.3452E+01 -1.3512E+02   1.7857E+02  0.000E+00  0.000E+00  0.000E+00  2.12500E+03  2.869E-03  3.000E+00  1.630E+03  0.000E+00  0.000E+00
   1   36   29     9     4    1.7857E+02  8.2539E+00   1.7032E+02  0.000E+00  0.000E+00  0.000E+00  2.11500E+03  3.825E-03  3.000E+00  1.630E+03  0.000E+00  0.000E+00
   1   36   30     9     5    1.7032E+02 -8.4712E+01   2.5503E+02  0.000E+00  0.000E+00  0.000E+00  2.10700E+03  4.142E-03  3.000E+00  1.350E+03  0.000E+00  0.000E+00
   1   36   31     9     6    2.5503E+02 -2.0794E+02   4.6297E+02  0.000E+00  0.000E+00  0.000E+00  2.09801E+03  5.774E-03  3.000E+00  1.350E+03  0.000E+00  0.000E+00
   1   36   32     9     7    4.6297E+02 -1.5768E+02   6.2065E+02  0.000E+00  0.000E+00  0.000E+00  2.09101E+03  7.693E-03  3.000E+00  1.350E+03  0.000E+00  0.000E+00
   1   36   33     9     8    6.2065E+02 -1.4734E+02   7.6800E+02  0.000E+00  0.000E+00  0.000E+00  2.08401E+03  8.928E-03  3.000E+00  1.350E+03  0.000E+00  0.000E+00
   1   36   34     9     9    7.6800E+02 -4.3593E+01   8.1159E+02  0.000E+00  0.000E+00  0.000E+00  2.07701E+03  7.391E-03  3.000E+00  6.750E+02  0.000E+00  0.000E+00
   1   58   37    10     1    0.0000E+00 -9.9297E+01   9.9297E+01  0.000E+00  0.000E+00  0.000E+00  2.15000E+03  2.673E-03  3.000E+00  1.350E+03  0.000E+00  0.000E+00
   1   57   37    10     2    9.9297E+01 -8.4751E+01   1.8405E+02  0.000E+00  0.000E+00  0.000E+00  2.14700E+03  4.481E-03  3.000E+00  1.630E+03  0.000E+00  0.000E+00
   1   56   38    10     3    1.8405E+02 -1.6375E+01   2.0042E+02  0.000E+00  0.000E+00  0.000E+00  2.14300E+03  4.992E-03  3.000E+00  1.630E+03  0.000E+00  0.000E+00
   1   55   38    10     4    2.0042E+02 -1.7815E+02   3.7857E+02  0.000E+00  0.000E+00  0.000E+00  2.13801E+03  6.249E-03  3.000E+00  1.350E+03  0.000E+00  0.000E+00
   1   54   38    10     5    3.7857E+02 -1.2194E+02   5.0051E+02  0.000E+00  0.000E+00  0.000E+00  2.13501E+03  8.750E-03  3.000E+00  1.350E+03  0.000E+00  0.000E+00
   1   53   38    10     6    5.0051E+02 -1.2018E+02   6.2068E+02  0.000E+00  0.000E+00  0.000E+00  2.13201E+03  1.012E-02  3.000E+00  1.350E+03  0.000E+00  0.000E+00
   1   52   38    10     7    6.2068E+02 -1.8208E+02   8.0277E+02  0.000E+00  0.000E+00  0.000E+00  2.12901E+03  1.396E-02  3.000E+00  1.630E+03  0.000E+00  0.000E+00
   1   51   39    10     8    8.0277E+02 -5.3626E+00   8.0813E+02  0.000E+00  0.000E+00  0.000E+00  2.12802E+03  1.504E-02  3.000E+00  1.630E+03  0.000E+00  0.000E+00
   1   50   39    10     9    8.0813E+02 -9.0980E+01   8.9911E+02  0.000E+00  0.000E+00  0.000E+00  2.12501E+03  1.316E-02  3.000E+00  1.630E+03  0.000E+00  0.000E+00
   1   49   38    10    10    8.9911E+02 -1.5786E+02   1.0570E+03  0.000E+00  0.000E+00  0.000E+00  2.12101E+03  1.498E-02  3.000E+00  1.909E+03  0.000E+00  0.000E+00
   1   48   37    10    11    1.0570E+03  1.5259E+01   1.0417E+03  0.000E+00  0.000E+00  0.000E+00  2.11801E+03  1.329E-02  3.000E+00  1.909E+03  0.000E+00  0.000E+00
   1   47   36    10    12    1.0417E+03 -3.4499E+02   1.3867E+03  0.000E+00  0.000E+00  0.000E+00  2.10901E+03  1.384E-02  3.000E+00  1.630E+03  0.000E+00  0.000E+00
   1   46   36    10    13    1.3867E+03 -1.4030E+02   1.5270E+03  0.000E+00  0.000E+00  0.000E+00  2.10602E+03  1.715E-02  3.000E+00  1.350E+03  0.000E+00  0.000E+00
   1   45   36    10    14    1.5270E+03 -1.7554E+02   1.7025E+03  0.000E+00  0.000E+00  0.000E+00  2.10202E+03  1.824E-02  3.000E+00  1.350E+03  0.000E+00  0.000E+00
   1   44   36    10    15    1.7025E+03 -1.0276E+02   1.8053E+03  0.000E+00  0.000E+00  0.000E+00  2.09902E+03  2.007E-02  3.000E+00  1.350E+03  0.000E+00  0.000E+00
   1   43   36    10    16    1.8053E+03 -6.3977E+00   1.8117E+03  0.000E+00  0.000E+00  0.000E+00  2.09602E+03  1.915E-02  3.000E+00  1.630E+03  0.000E+00  0.000E+00
   1   42   37    10    17    1.8117E+03  9.7776E+01   1.7139E+03  0.000E+00  0.000E+00  0.000E+00  2.09002E+03  1.587E-02  3.000E+00  1.630E+03  9.783E+01 -5.260E-02
   1   41   37    10    18    1.7139E+03 -2.3556E+02   1.9495E+03  0.000E+00  0.000E+00  0.000E+00  2.08002E+03  1.535E-02  3.000E+00  1.350E+03  0.000E+00  0.000E+00
   1   40   37    10    19    1.9495E+03 -3.3697E+02   2.2864E+03  0.000E+00  0.000E+00  0.000E+00  2.07402E+03  2.106E-02  3.000E+00  1.630E+03  0.000E+00  0.000E+00
   1   39   38    10    20    2.2864E+03 -3.9604E+01   2.3260E+03  0.000E+00  0.000E+00  0.000E+00  2.07102E+03  2.390E-02  3.000E+00  1.630E+03  0.000E+00  0.000E+00
   1   38   38    10    21    2.3260E+03  6.5360E+00   2.3195E+03  0.000E+00  0.000E+00  0.000E+00  2.06702E+03  2.157E-02  3.000E+00  1.630E+03  0.000E+00  0.000E+00
   1   37   37    10    22    2.3195E+03 -3.0689E+02   2.6264E+03  0.000E+00  0.000E+00  0.000E+00  2.06102E+03  2.239E-02  3.000E+00  1.630E+03  0.000E+00  0.000E+00
   1   36   37    10    23    2.6264E+03 -2.1736E+02   2.8438E+03  0.000E+00  0.000E+00  0.000E+00  2.05702E+03  2.502E-02  3.000E+00  1.350E+03  0.000E+00  0.000E+00
   1   35   37    10    24    2.8438E+03 -5.3530E+01   2.8973E+03  0.000E+00  0.000E+00  0.000E+00  2.05402E+03  1.827E-02  3.000E+00  6.750E+02  0.000E+00  0.000E+00
   1   36   55    11     1    8.1862E+03 -4.2375E+01   8.2286E+03  0.000E+00  0.000E+00  0.000E+00  1.97604E+03  3.929E-02  3.000E+00  6.750E+02  0.000E+00  0.000E+00
   1   36   56    11     2    8.2286E+03 -6.4101E+01   8.2927E+03  0.000E+00  0.000E+00  0.000E+00  1.97507E+03  6.626E-02  3.000E+00  1.630E+03  0.000E+00  0.000E+00
   1   37   57    11     3    8.2927E+03 -1.4315E+02   8.4358E+03  0.000E+00  0.000E+00  0.000E+00  1.97307E+03  6.675E-02  3.000E+00  1.630E+03  0.000E+00  0.000E+00
   1   37   58    11     4    8.4358E+03 -9.8188E+01   8.5340E+03  0.000E+00  0.000E+00  0.000E+00  1.97209E+03  8.848E-02  3.000E+00  1.350E+03  0.000E+00  0.000E+00
   1   37   59    11     5    8.5340E+03 -3.6337E+00   8.5376E+03  0.000E+00  0.000E+00  0.000E+00  1.97207E+03  7.212E-02  3.000E+00  1.350E+03  0.000E+00  0.000E+00
   1   37   60    11     6    8.5376E+03 -2.9357E+01   8.5670E+03  0.000E+00  0.000E+00  0.000E+00  1.97006E+03  5.804E-02  3.000E+00  1.630E+03  0.000E+00  0.000E+00
   1   38   61    11     7    8.5670E+03 -8.9519E+01   8.6565E+03  0.000E+00  0.000E+00  0.000E+00  1.96705E+03  5.268E-02  3.000E+00  1.630E+03  0.000E+00  0.000E+00
   1   38   62    11     8    8.6565E+03 -9.7445E+01   8.7539E+03  0.000E+00  0.000E+00  0.000E+00  1.96305E+03  4.815E-02  3.000E+00  6.750E+02  0.000E+00  0.000E+00
   1   51   11    12     1    0.0000E+00 -4.8132E+02   4.8132E+02  0.000E+00  0.000E+00  0.000E+00  2.38700E+03  4.582E-03  3.000E+00  1.909E+03  0.000E+00  0.000E+00
   1   50   12    12     2    4.8132E+02 -6.7560E+01   5.4888E+02  0.000E+00  0.000E+00  0.000E+00  2.37501E+03  6.896E-03  3.000E+00  1.630E+03  0.000E+00  0.000E+00
   1   49   12    12     3    5.4888E+02 -3.9718E+02   9.4606E+02  0.000E+00  0.000E+00  0.000E+00  2.36501E+03  9.009E-03  3.000E+00  1.630E+03  0.000E+00  0.000E+00
   1   48   13    12     4    9.4606E+02 -1.9444E+02   1.1405E+03  0.000E+00  0.000E+00  0.000E+00  2.35601E+03  1.181E-02  3.000E+00  1.630E+03  0.000E+00  0.000E+00
   1   48   14    12     5    1.1405E+03 -1.6908E+02   1.3096E+03  0.000E+00  0.000E+00  0.000E+00  2.35001E+03  1.276E-02  3.000E+00  1.630E+03  0.000E+00  0.000E+00
   1   47   15    12     6    1.3096E+03 -1.7488E+02   1.4845E+03  0.000E+00  0.000E+00  0.000E+00  2.34001E+03  1.408E-02  3.000E+00  1.630E+03  0.000E+00  0.000E+00
   1   47   16    12     7    1.4845E+03 -1.3298E+02   1.6174E+03  0.000E+00  0.000E+00  0.000E+00  2.33502E+03  1.645E-02  3.000E+00  1.630E+03  0.000E+00  0.000E+00
   1   46   17    12     8    1.6174E+03  7.1498E+01   1.5459E+03  0.000E+00  0.000E+00  0.000E+00  2.32902E+03  1.548E-02  3.000E+00  1.630E+03  0.000E+00  0.000E+00
   1   46   18    12     9    1.5459E+03  1.6318E+02   1.3828E+03  0.000E+00  0.000E+00  0.000E+00  2.32101E+03  1.204E-02  3.000E+00  1.350E+03  0.000E+00  0.000E+00
   1   46   19    12    10    1.3828E+03 -1.6715E+02   1.5499E+03  0.000E+00  0.000E+00  0.000E+00  2.30601E+03  1.369E-02  3.000E+00  1.350E+03  0.000E+00  0.000E+00
   1   46   20    12    11    1.5499E+03  9.7776E+01   1.4521E+03  0.000E+00  0.000E+00  0.000E+00  2.30601E+03  1.171E-02  3.000E+00  1.630E+03  0.000E+00  0.000E+00
   1   45   21    12    12    1.4521E+03 -5.8452E+01   1.5106E+03  0.000E+00  0.000E+00  0.000E+00  2.27401E+03  1.030E-02  3.000E+00  1.909E+03  0.000E+00  0.000E+00
   1   44   22    12    13    1.5106E+03 -1.4727E+02   1.6579E+03  0.000E+00  0.000E+00  0.000E+00  2.25001E+03  1.160E-02  3.000E+00  1.909E+03  0.000E+00  0.000E+00
   1   43   23    12    14    1.6579E+03  1.4757E+02   1.5103E+03  0.000E+00  0.000E+00  0.000E+00  2.23101E+03  1.169E-02  3.000E+00  1.909E+03  0.000E+00  0.000E+00
   1   42   24    12    15    1.5103E+03 -8.2444E+01   1.5927E+03  0.000E+00  0.000E+00  0.000E+00  2.20801E+03  1.206E-02  3.000E+00  1.630E+03  0.000E+00  0.000E+00
   1   42   25    12    16    1.5927E+03 -2.2167E+01   1.6149E+03  0.000E+00  0.000E+00  0.000E+00  2.20001E+03  1.326E-02  3.000E+00  1.350E+03  0.000E+00  0.000E+00
   1   42   26    12    17    1.6149E+03  1.2010E+02   1.4948E+03  0.000E+00  0.000E+00  0.000E+00  2.18801E+03  1.152E-02  3.000E+00  1.350E+03  0.000E+00  0.000E+00
   1   42   27    12    18    1.4948E+03 -2.6576E+02   1.7606E+03  0.000E+00  0.000E+00  0.000E+00  2.17001E+03  1.196E-02  3.000E+00  1.350E+03  0.000E+00  0.000E+00
   1   42   28    12    19    1.7606E+03 -9.2340E+01   1.8529E+03  0.000E+00  0.000E+00  0.000E+00  2.15901E+03  1.362E-02  3.000E+00  1.630E+03  0.000E+00  0.000E+00
   1   41   29    12    20    1.8529E+03  1.5166E+02   1.7012E+03  0.000E+00  0.000E+00  0.000E+00  2.14201E+03  1.359E-02  3.000E+00  1.909E+03  0.000E+00  0.000E+00
   1   40   30    12    21    1.7012E+03  5.7538E+01   1.6437E+03  0.000E+00  0.000E+00  0.000E+00  2.12701E+03  1.379E-02  3.000E+00  1.909E+03  0.000E+00  0.000E+00
   1   39   31    12    22    1.6437E+03  1.1455E+02   1.5292E+03  0.000E+00  0.000E+00  0.000E+00  2.11501E+03  1.384E-02  3.000E+00  1.909E+03  1.150E+02 -4.716E-01
   1   38   32    12    23    1.5292E+03  1.1455E+02   1.4146E+03  0.000E+00  0.000E+00  0.000E+00  2.10301E+03  1.291E-02  3.000E+00  1.909E+03  1.150E+02 -4.975E-01
   1   37   33    12    24    1.4146E+03  4.3707E+00   1.4102E+03  0.000E+00  0.000E+00  0.000E+00  2.08901E+03  1.260E-02  3.000E+00  1.909E+03  0.000E+00  0.000E+00
   1   36   34    12    25    1.4102E+03 -5.8319E+01   1.4685E+03  0.000E+00  0.000E+00  0.000E+00  2.07701E+03  1.088E-02  3.000E+00  9.546E+02  0.000E+00  0.000E+00
   1   38   62    13     1    8.9352E+03 -1.0478E+02   9.0400E+03  0.000E+00  0.000E+00  0.000E+00  1.96304E+03  3.728E-02  3.000E+00  6.750E+02  0.000E+00  0.000E+00
   1   38   63    13     2    9.0400E+03 -8.8416E+00   9.0488E+03  0.000E+00  0.000E+00  0.000E+00  1.96544E+03  2.437E+00  3.000E+00  1.350E+03  0.000E+00  0.000E+00
   1   38   64    13     3    9.0488E+03  1.6939E+01   9.0319E+03  0.000E+00  0.000E+00  0.000E+00  1.96544E+03  2.436E+00  3.000E+00  1.350E+03  0.000E+00  0.000E+00
   1   38   65    13     4    9.0319E+03 -4.8135E+01   9.0800E+03  0.000E+00  0.000E+00  0.000E+00  1.96307E+03  6.617E-02  3.000E+00  1.350E+03  0.000E+00  0.000E+00
   1   38   66    13     5    9.0800E+03 -8.5700E+01   9.1657E+03  0.000E+00  0.000E+00  0.000E+00  1.96006E+03  5.702E-02  3.000E+00  1.350E+03  0.000E+00  0.000E+00
   1   38   67    13     6    9.1657E+03 -5.6881E+01   9.2226E+03  0.000E+00  0.000E+00  0.000E+00  1.95805E+03  5.479E-02  3.000E+00  1.630E+03  0.000E+00  0.000E+00
   1   39   68    13     7    9.2226E+03 -3.0180E+01   9.2528E+03  0.000E+00  0.000E+00  0.000E+00  1.95305E+03  4.937E-02  3.000E+00  1.630E+03  0.000E+00  0.000E+00
   1   39   69    13     8    9.2528E+03 -8.8470E+01   9.3413E+03  0.000E+00  0.000E+00  0.000E+00  1.94805E+03  5.213E-02  3.000E+00  1.350E+03  0.000E+00  0.000E+00
   1   39   70    13     9    9.3413E+03  1.7983E+01   9.3233E+03  0.000E+00  0.000E+00  0.000E+00  1.94604E+03  4.445E-02  3.000E+00  6.750E+02  0.000E+00  0.000E+00
   1   46   61    14     1    0.0000E+00  0.0000E+00   0.0000E+00  0.000E+00  0.000E+00  0.000E+00  2.01700E+03  0.000E+00  3.000E+00  1.350E+03  0.000E+00  0.000E+00
   1   45   61    14     2    0.0000E+00  0.0000E+00   0.0000E+00  0.000E+00  0.000E+00  0.000E+00  2.01000E+03  0.000E+00  3.000E+00  1.350E+03  0.000E+00  0.000E+00
   1   44   61    14     3    0.0000E+00  0.0000E+00   0.0000E+00  0.000E+00  0.000E+00  0.000E+00  2.00600E+03  0.000E+00  3.000E+00  1.350E+03  0.000E+00  0.000E+00
   1   43   61    14     4    0.0000E+00  0.0000E+00   0.0000E+00  0.000E+00  0.000E+00  0.000E+00  1.99900E+03  0.000E+00  3.000E+00  1.350E+03  0.000E+00  0.000E+00
   1   42   61    14     5    0.0000E+00  0.0000E+00   0.0000E+00  0.000E+00  0.000E+00  0.000E+00  1.99300E+03  0.000E+00  3.000E+00  1.350E+03  0.000E+00  0.000E+00
   1   41   61    14     6    0.0000E+00  0.0000E+00   0.0000E+00  0.000E+00  0.000E+00  0.000E+00  1.98500E+03  0.000E+00  3.000E+00  1.350E+03  0.000E+00  0.000E+00
   1   40   61    14     7    0.0000E+00 -4.6982E+00   4.6982E+00  0.000E+00  0.000E+00  0.000E+00  1.97800E+03  3.137E-04  3.000E+00  1.350E+03  0.000E+00  0.000E+00
   1   39   61    14     8    4.6982E+00  4.6982E+00   0.0000E+00  0.000E+00  0.000E+00  0.000E+00  1.97300E+03  1.039E-04  3.000E+00  1.630E+03  0.000E+00  0.000E+00
   1   38   62    14     9    0.0000E+00 -1.8126E+02   1.8126E+02  0.000E+00  0.000E+00  0.000E+00  1.96300E+03  2.627E-03  3.000E+00  9.546E+02  0.000E+00  0.000E+00
   1   39   70    15     1    9.7363E+03  1.3628E+01   9.7227E+03  0.000E+00  0.000E+00  0.000E+00  1.94604E+03  3.800E-02  3.000E+00  6.750E+02  0.000E+00  0.000E+00
   1   39   71    15     2    9.7227E+03 -1.1588E+02   9.8386E+03  0.000E+00  0.000E+00  0.000E+00  1.94206E+03  6.290E-02  3.000E+00  1.630E+03  0.000E+00  0.000E+00
   1   40   72    15     3    9.8386E+03 -3.4000E+01   9.8726E+03  0.000E+00  0.000E+00  0.000E+00  1.94107E+03  6.757E-02  3.000E+00  1.630E+03  0.000E+00  0.000E+00
   1   40   73    15     4    9.8726E+03 -5.3549E+01   9.9261E+03  0.000E+00  0.000E+00  0.000E+00  1.93806E+03  5.988E-02  3.000E+00  1.350E+03  0.000E+00  0.000E+00
   1   40   74    15     5    9.9261E+03 -3.3869E+01   9.9600E+03  0.000E+00  0.000E+00  0.000E+00  1.93606E+03  6.420E-02  3.000E+00  1.350E+03  0.000E+00  0.000E+00
   1   40   75    15     6    9.9600E+03 -1.9317E+00   9.9619E+03  0.000E+00  0.000E+00  0.000E+00  1.93406E+03  5.690E-02  3.000E+00  6.750E+02  0.000E+00  0.000E+00
   1   40   75    16     1    1.0878E+04 -5.5961E+00   1.0883E+04  0.000E+00  0.000E+00  0.000E+00  1.93405E+03  5.148E-02  3.000E+00  6.750E+02  0.000E+00  0.000E+00
   1   40   76    16     2    1.0883E+04  0.0000E+00   1.0883E+04  0.000E+00  0.000E+00  0.000E+00  1.93307E+03  7.388E-02  3.000E+00  0.000E+00  0.000E+00  0.000E+00
   1   55   73    17     1    0.0000E+00  0.0000E+00   0.0000E+00  0.000E+00  0.000E+00  0.000E+00  2.04100E+03  0.000E+00  3.000E+00  1.350E+03  0.000E+00  0.000E+00
   1   54   73    17     2    0.0000E+00  0.0000E+00   0.0000E+00  0.000E+00  0.000E+00  0.000E+00  2.02900E+03  0.000E+00  3.000E+00  1.350E+03  0.000E+00  0.000E+00
   1   53   73    17     3    0.0000E+00  0.0000E+00   0.0000E+00  0.000E+00  0.000E+00  0.000E+00  2.01700E+03  0.000E+00  3.000E+00  1.350E+03  0.000E+00  0.000E+00
   1   52   73    17     4    0.0000E+00 -5.5434E+01   5.5434E+01  0.000E+00  0.000E+00  0.000E+00  2.01000E+03  1.251E-03  3.000E+00  1.630E+03  0.000E+00  0.000E+00
   1   51   72    17     5    5.5434E+01 -2.4534E+02   3.0078E+02  0.000E+00  0.000E+00  0.000E+00  1.99800E+03  3.940E-03  3.000E+00  1.630E+03  0.000E+00  0.000E+00
   1   50   72    17     6    3.0078E+02 -1.9973E+01   3.2075E+02  0.000E+00  0.000E+00  0.000E+00  1.99301E+03  5.772E-03  3.000E+00  1.350E+03  0.000E+00  0.000E+00
   1   49   72    17     7    3.2075E+02 -8.2237E+01   4.0299E+02  0.000E+00  0.000E+00  0.000E+00  1.98601E+03  6.039E-03  3.000E+00  1.350E+03  0.000E+00  0.000E+00
   1   48   72    17     8    4.0299E+02 -1.2416E+02   5.2714E+02  0.000E+00  0.000E+00  0.000E+00  1.97901E+03  7.020E-03  3.000E+00  1.350E+03  0.000E+00  0.000E+00
   1   47   72    17     9    5.2714E+02 -1.9443E+02   7.2157E+02  0.000E+00  0.000E+00  0.000E+00  1.97201E+03  8.565E-03  3.000E+00  1.350E+03  0.000E+00  0.000E+00
   1   46   72    17    10    7.2157E+02 -2.1577E+01   7.4315E+02  0.000E+00  0.000E+00  0.000E+00  1.96601E+03  9.655E-03  3.000E+00  1.350E+03  0.000E+00  0.000E+00
   1   45   72    17    11    7.4315E+02 -8.4910E+00   7.5164E+02  0.000E+00  0.000E+00  0.000E+00  1.96001E+03  9.873E-03  3.000E+00  1.630E+03  0.000E+00  0.000E+00
   1   44   73    17    12    7.5164E+02 -2.5551E+01   7.7719E+02  0.000E+00  0.000E+00  0.000E+00  1.95201E+03  1.023E-02  3.000E+00  1.630E+03  0.000E+00  0.000E+00
   1   43   73    17    13    7.7719E+02 -4.4832E+01   8.2202E+02  0.000E+00  0.000E+00  0.000E+00  1.94701E+03  1.149E-02  3.000E+00  1.350E+03  0.000E+00  0.000E+00
   1   42   73    17    14    8.2202E+02 -7.3614E+00   8.2939E+02  0.000E+00  0.000E+00  0.000E+00  1.94401E+03  1.197E-02  3.000E+00  1.630E+03  0.000E+00  0.000E+00
   1   41   74    17    15    8.2939E+02 -4.1548E+01   8.7093E+02  0.000E+00  0.000E+00  0.000E+00  1.93801E+03  1.237E-02  3.000E+00  1.909E+03  0.000E+00  0.000E+00
   1   40   75    17    16    8.7093E+02 -4.4884E+01   9.1582E+02  0.000E+00  0.000E+00  0.000E+00  1.93401E+03  1.275E-02  3.000E+00  9.546E+02  0.000E+00  0.000E+00
   1   37   55    18     1    0.0000E+00  0.0000E+00   0.0000E+00  0.000E+00  0.000E+00  0.000E+00  2.00700E+03  0.000E+00  3.000E+00  1.630E+03  0.000E+00  0.000E+00
   1   36   54    19     1    0.0000E+00  0.0000E+00   0.0000E+00  0.000E+00  0.000E+00  0.000E+00  2.00700E+03  0.000E+00  3.000E+00  1.630E+03  0.000E+00  0.000E+00



1
  VOLUMETRIC BUDGET FOR UNSATURATED ZONE BENEATH STREAMS AT END OF TIME STEP     1 STRESS PERIOD   4
  ------------------------------------------------------------------------------------------------

    CUMULATIVE VOLUMES             L**3    RATES FOR THIS TIME STEP         L**3/T
    ------------------                     ------------------------


          STREAM LOSS =        69459.7578            STREAM LOSS =         1197.5439
    CHANGE IN STORAGE =          253.8923      CHANGE IN STORAGE =           -7.1948
       RECHARGE TO GW =        69205.7188         RECHARGE TO GW =         1204.7388

             TOTAL IN =        69459.7578               TOTAL IN =         1204.7388

            TOTAL OUT =        69459.6094              TOTAL OUT =         1204.7388

             IN - OUT =            0.1484               IN - OUT =            0.0000

  PERCENT DISCREPANCY =            0.00      PERCENT DISCREPANCY =             0.00



 ***WARNING***NUZTOP IS 3 AND ALL LAYERS  IN ROW           39  AND COLUMN           76  ARE INACTIVE.
 UNSATURATED FLOW WILL NOT BE ADDED TO ANY LAYER-- SOME WATER MAY FLOW PAST LOWEST LAYER
 ***WARNING***NUZTOP IS 3 AND ALL LAYERS  IN ROW           40  AND COLUMN           76  ARE INACTIVE.
 UNSATURATED FLOW WILL NOT BE ADDED TO ANY LAYER-- SOME WATER MAY FLOW PAST LOWEST LAYER


UNSATURATED ZONE PACKAGE VOLUMETRIC BUDGET FOR  TIME STEP     1 STRESS PERIOD    4
  ------------------------------------------------------------------------------



     CUMULATIVE VOLUMES      L**3       RATES FOR THIS TIME STEP      L**3/T
     ------------------                 ------------------------

           IN:                                      IN:
           ---                                      ---
        INFILTRATION =       26653.0419          INFILTRATION =       0.0000E+00

          OUT:                                     OUT:
          ----                                     ----
              UZF ET =      657441.3998                UZF ET =           0.0000
        UZF RECHARGE =     1300059.9533          UZF RECHARGE =       17302.3817

            IN - OUT =    -1930848.3112              IN - OUT =      -17302.3817

          STORAGE:                                 STORAGE:
          --------                                 --------
      STORAGE CHANGE =    -1928876.2583        STORAGE CHANGE =      -17302.2288

 PERCENT DISCREPANCY IS DIFFERENCE BETWEEN IN-OUT MINUS CHANGE IN STORAGE
 DIVIDED BY THE AVERAGE OF IN AND OUT TIMES 100

 PERCENT DISCREPANCY =          -0.03     PERCENT DISCREPANCY =          -0.00








        GW IRRIGATION     PERIOD    4   STEP   1

1
  VOLUMETRIC BUDGET FOR AGRICULTURAL FIELDS AT  END OF TIME STEP    1, STRESS PERIOD   4
  ------------------------------------------------------------------------------

     CUMULATIVE VOLUMES      L**3       RATES FOR THIS TIME STEP      L**3/T
     ------------------                 ------------------------

           IN:                                      IN:
           ---                                      ---
               AG WELLS  =           0.0000                 AG WELLS  =          -0.0000
      DIVERSION SEGMENTS =           0.0000        DIVERSION SEGMENTS =           0.0000
       IRRIGATION PONDS  =           0.0000         IRRIGATION PONDS  =           0.0000
           GW IRRIGATION =           0.0000             GW IRRIGATION =           0.0000
           SW IRRIGATION =           0.0000             SW IRRIGATION =           0.0000
        SYSTEM LOSSES GW =           0.0000          SYSTEM LOSSES GW =           0.0000
        SYSTEM LOSSES SW =           0.0000          SYSTEM LOSSES SW =          -0.0000

                TOTAL IN =           0.0000                  TOTAL IN =           0.0000

          OUT:                                     OUT:
          ----                                     ----
               AG WELLS  =           0.0000                 AG WELLS  =           0.0000
      DIVERSION SEGMENTS =           0.0000        DIVERSION SEGMENTS =           0.0000
       IRRIGATION PONDS  =           0.0000         IRRIGATION PONDS  =           0.0000
           GW IRRIGATION =           0.0000             GW IRRIGATION =           0.0000
           SW IRRIGATION =           0.0000             SW IRRIGATION =           0.0000
        SYSTEM LOSSES GW =           0.0000          SYSTEM LOSSES GW =           0.0000
        SYSTEM LOSSES SW =           0.0000          SYSTEM LOSSES SW =           0.0000

               TOTAL OUT =           0.0000                 TOTAL OUT =           0.0000

                IN - OUT =           0.0000                  IN - OUT =           0.0000

     PERCENT DISCREPANCY =           0.00         PERCENT DISCREPANCY =           0.00




 HEAD WILL BE SAVED ON UNIT   58 AT END OF TIME STEP    1, STRESS PERIOD    4
1
  VOLUMETRIC BUDGET FOR ENTIRE MODEL AT END OF TIME STEP    1, STRESS PERIOD   4
  ------------------------------------------------------------------------------

     CUMULATIVE VOLUMES      L**3       RATES FOR THIS TIME STEP      L**3/T
     ------------------                 ------------------------

           IN:                                      IN:
           ---                                      ---
             STORAGE     =      106130.5078               STORAGE     =        2878.0249
       CONSTANT HEAD     =           0.0000         CONSTANT HEAD     =           0.0000
      STREAM LEAKAGE     =      176293.6094        STREAM LEAKAGE     =        2552.6226
        UZF RECHARGE     =     1300074.0000          UZF RECHARGE     =       17302.3809
               GW ET     =           0.0000                 GW ET     =           0.0000
     SURFACE LEAKAGE     =           0.0000       SURFACE LEAKAGE     =           0.0000
           AG WELLS      =           0.0000             AG WELLS      =           0.0000

                TOTAL IN =     1582498.1250                  TOTAL IN =       22733.0273

          OUT:                                     OUT:
          ----                                     ----
             STORAGE     =      580541.1250               STORAGE     =        8984.9863
       CONSTANT HEAD     =        2269.0095         CONSTANT HEAD     =          35.6878
      STREAM LEAKAGE     =      739872.7500        STREAM LEAKAGE     =       13424.4463
        UZF RECHARGE     =           0.0000          UZF RECHARGE     =           0.0000
               GW ET     =      254906.5469                 GW ET     =         164.1078
     SURFACE LEAKAGE     =        4767.5078       SURFACE LEAKAGE     =         122.3164
           AG WELLS      =           0.0000             AG WELLS      =           0.0000

               TOTAL OUT =     1582356.8750                 TOTAL OUT =       22731.5449

                IN - OUT =         141.2500                  IN - OUT =           1.4824

     PERCENT DISCREPANCY =           0.01         PERCENT DISCREPANCY =           0.01






         TIME SUMMARY AT END OF TIME STEP    1 IN STRESS PERIOD    4
                    SECONDS     MINUTES      HOURS       DAYS        YEARS
                    -----------------------------------------------------------
   TIME STEP LENGTH  86400.      1440.0      24.000      1.0000     2.73785E-03
 STRESS PERIOD TIME  86400.      1440.0      24.000      1.0000     2.73785E-03
         TOTAL TIME 5.44320E+06  90720.      1512.0      63.000     0.17248    
1
                                                   Max.-Head-Change                         Max.-Flux-Residual
  Residual-Control   Outer-Iter.   Inner-Iter.     Column Row Layer    Maximum-Head-Change  Column Row Layer    Maximum-Flux-Residual          L2-NORM 
          0                 1           4            61   34     1       0.6103938980E+00      69   29    1         0.1653878004E+03      0.3777541734E+03
          0                 2           3            56    9     1       0.1249672645E+00       6   57    1         0.9803401039E+01      0.5872730020E+02
          0                 3           2             5   60     1       0.4943834324E-02       6   57    1         0.3752103201E+01      0.1907891545E+02
          0                 4           2             5   60     1       0.2401582111E-02       5   60    1         0.1570531387E+01      0.7543103076E+01
          0                 5           2             5   60     1       0.1166486482E-02       5   60    1         0.7629377888E+00      0.3211628336E+01
          0                 6           1             5   60     1       0.5665816407E-03       5   60    1         0.3705739338E+00      0.1458765941E+01

    ------------------------------------------------
       NWT REQUIRED            6 OUTER ITERATIONS 
       AND A TOTAL OF         14 INNER ITERATIONS.
    ------------------------------------------------

 NO OUTPUT CONTROL FOR STRESS PERIOD    4   TIME STEP    2
 ***WARNING***NUZTOP IS 3 AND ALL LAYERS  IN ROW           39  AND COLUMN           76  ARE INACTIVE.
 UNSATURATED FLOW WILL NOT BE ADDED TO ANY LAYER-- SOME WATER MAY FLOW PAST LOWEST LAYER
 ***WARNING***NUZTOP IS 3 AND ALL LAYERS  IN ROW           40  AND COLUMN           76  ARE INACTIVE.
 UNSATURATED FLOW WILL NOT BE ADDED TO ANY LAYER-- SOME WATER MAY FLOW PAST LOWEST LAYER
                                                   Max.-Head-Change                         Max.-Flux-Residual
  Residual-Control   Outer-Iter.   Inner-Iter.     Column Row Layer    Maximum-Head-Change  Column Row Layer    Maximum-Flux-Residual          L2-NORM 
          0                 1           5            56    9     1       0.7412964139E+00      69   29    1         0.1595573403E+03      0.3607406574E+03
          0                 2           4            43   29     1       0.1192802837E+01      43   29    1         0.2080919337E+02      0.6585085345E+02
          0                 3           2            43   30     1       0.1201689295E-01      64   38    1        -0.1140961163E+02      0.2669651123E+02
          0                 4           2            64   38     1      -0.7439988458E-02      64   38    1        -0.1048501975E+02      0.1718276370E+02
          0                 5           2            64   38     1      -0.3152853343E-02      64   38    1        -0.4466760861E+01      0.6473488542E+01
          0                 6           1            64   38     1      -0.8561094085E-03      64   38    1        -0.1216485643E+01      0.2047703794E+01

    ------------------------------------------------
       NWT REQUIRED            6 OUTER ITERATIONS 
       AND A TOTAL OF         16 INNER ITERATIONS.
    ------------------------------------------------

 NO OUTPUT CONTROL FOR STRESS PERIOD    4   TIME STEP    3
 ***WARNING***NUZTOP IS 3 AND ALL LAYERS  IN ROW           39  AND COLUMN           76  ARE INACTIVE.
 UNSATURATED FLOW WILL NOT BE ADDED TO ANY LAYER-- SOME WATER MAY FLOW PAST LOWEST LAYER
 ***WARNING***NUZTOP IS 3 AND ALL LAYERS  IN ROW           40  AND COLUMN           76  ARE INACTIVE.
 UNSATURATED FLOW WILL NOT BE ADDED TO ANY LAYER-- SOME WATER MAY FLOW PAST LOWEST LAYER
                                                   Max.-Head-Change                         Max.-Flux-Residual
  Residual-Control   Outer-Iter.   Inner-Iter.     Column Row Layer    Maximum-Head-Change  Column Row Layer    Maximum-Flux-Residual          L2-NORM 
          0                 1           5            61   34     1      -0.7766296971E+00      69   29    1         0.1203779093E+03      0.3090638560E+03
          0                 2           4            68   53     1       0.4544379630E+00      63   38    1        -0.2325499553E+02      0.6481961741E+02
          0                 3           3            64   38     1      -0.1270815196E-01      64   38    1        -0.1792627438E+02      0.3398751017E+02
          0                 4           3            63   38     1      -0.1293563172E-01      63   38    1        -0.1827450411E+02      0.2740756647E+02
          0                 5           2            64   38     1      -0.5609801450E-02      64   38    1        -0.7948560282E+01      0.1041900393E+02
          0                 6           2            64   38     1      -0.1564440690E-02      64   38    1        -0.2223781665E+01      0.2949548233E+01
          0                 7           1            64   38     1      -0.3352320039E-03      64   38    1        -0.4773984853E+00      0.8680321823E+00

    ------------------------------------------------
       NWT REQUIRED            7 OUTER ITERATIONS 
       AND A TOTAL OF         20 INNER ITERATIONS.
    ------------------------------------------------

 NO OUTPUT CONTROL FOR STRESS PERIOD    4   TIME STEP    4
 ***WARNING***NUZTOP IS 3 AND ALL LAYERS  IN ROW           39  AND COLUMN           76  ARE INACTIVE.
 UNSATURATED FLOW WILL NOT BE ADDED TO ANY LAYER-- SOME WATER MAY FLOW PAST LOWEST LAYER
 ***WARNING***NUZTOP IS 3 AND ALL LAYERS  IN ROW           40  AND COLUMN           76  ARE INACTIVE.
 UNSATURATED FLOW WILL NOT BE ADDED TO ANY LAYER-- SOME WATER MAY FLOW PAST LOWEST LAYER
                                                   Max.-Head-Change                         Max.-Flux-Residual
  Residual-Control   Outer-Iter.   Inner-Iter.     Column Row Layer    Maximum-Head-Change  Column Row Layer    Maximum-Flux-Residual          L2-NORM 
          0                 1           5            68   53     1       0.1070882079E+01      69   29    1         0.8112308535E+02      0.2746610439E+03
          0                 2           4            59   49     1       0.1186767765E+01      68   27    1         0.2787689346E+03      0.3334029474E+03
          0                 3           2            68   27     1       0.1459554737E-01      68   27    1         0.1830646848E+02      0.3089746109E+02
          0                 4           2            64   38     1       0.6684811726E-02      64   38    1         0.9417421874E+01      0.1565615863E+02
          0                 5           2            64   38     1       0.2833814876E-02      64   38    1         0.4014100366E+01      0.5875134368E+01
          0                 6           1            64   38     1       0.7832134529E-03      64   38    1         0.1112514463E+01      0.1892969549E+01

    ------------------------------------------------
       NWT REQUIRED            6 OUTER ITERATIONS 
       AND A TOTAL OF         16 INNER ITERATIONS.
    ------------------------------------------------

 NO OUTPUT CONTROL FOR STRESS PERIOD    4   TIME STEP    5
 ***WARNING***NUZTOP IS 3 AND ALL LAYERS  IN ROW           39  AND COLUMN           76  ARE INACTIVE.
 UNSATURATED FLOW WILL NOT BE ADDED TO ANY LAYER-- SOME WATER MAY FLOW PAST LOWEST LAYER
 ***WARNING***NUZTOP IS 3 AND ALL LAYERS  IN ROW           40  AND COLUMN           76  ARE INACTIVE.
 UNSATURATED FLOW WILL NOT BE ADDED TO ANY LAYER-- SOME WATER MAY FLOW PAST LOWEST LAYER
                                                   Max.-Head-Change                         Max.-Flux-Residual
  Residual-Control   Outer-Iter.   Inner-Iter.     Column Row Layer    Maximum-Head-Change  Column Row Layer    Maximum-Flux-Residual          L2-NORM 
          0                 1           4            72   62     1       0.7912713353E+00      68   27    1         0.3133811853E+03      0.4294778833E+03
          0                 2           3            37   28     1       0.2525475243E+00      68   27    1         0.2083669309E+02      0.6143675568E+02
          0                 3           2            64   38     1       0.6671142910E-02      64   38    1         0.9402362558E+01      0.2400155577E+02
          0                 4           2            63   38     1       0.6583773391E-02      63   38    1         0.9297159248E+01      0.1540053851E+02
          0                 5           2            64   38     1       0.2808941259E-02      64   38    1         0.3980016168E+01      0.5850210371E+01
          0                 6           1            64   38     1       0.7759124687E-03      64   38    1         0.1102842629E+01      0.1902884144E+01

    ------------------------------------------------
       NWT REQUIRED            6 OUTER ITERATIONS 
       AND A TOTAL OF         14 INNER ITERATIONS.
    ------------------------------------------------

 NO OUTPUT CONTROL FOR STRESS PERIOD    4   TIME STEP    6
 ***WARNING***NUZTOP IS 3 AND ALL LAYERS  IN ROW           39  AND COLUMN           76  ARE INACTIVE.
 UNSATURATED FLOW WILL NOT BE ADDED TO ANY LAYER-- SOME WATER MAY FLOW PAST LOWEST LAYER
 ***WARNING***NUZTOP IS 3 AND ALL LAYERS  IN ROW           40  AND COLUMN           76  ARE INACTIVE.
 UNSATURATED FLOW WILL NOT BE ADDED TO ANY LAYER-- SOME WATER MAY FLOW PAST LOWEST LAYER
                                                   Max.-Head-Change                         Max.-Flux-Residual
  Residual-Control   Outer-Iter.   Inner-Iter.     Column Row Layer    Maximum-Head-Change  Column Row Layer    Maximum-Flux-Residual          L2-NORM 
          0                 1           4            61   34     1      -0.3922183015E+00      68   27    1         0.3253469855E+03      0.4376548021E+03
          0                 2           3            66   49     1       0.3238079304E+00      68   27    1        -0.6765429591E+02      0.8679549336E+02
          0                 3           2            64   38     1      -0.6905201576E-02      64   38    1        -0.9740318856E+01      0.2243790661E+02
          0                 4           2            63   38     1      -0.6686988949E-02      63   38    1        -0.9444261754E+01      0.1495448235E+02
          0                 5           2            64   38     1      -0.2893014749E-02      64   38    1        -0.4098044326E+01      0.5735353083E+01
          0                 6           1            64   38     1      -0.8011134807E-03      64   38    1        -0.1138207288E+01      0.1806725140E+01

    ------------------------------------------------
       NWT REQUIRED            6 OUTER ITERATIONS 
       AND A TOTAL OF         14 INNER ITERATIONS.
    ------------------------------------------------

 NO OUTPUT CONTROL FOR STRESS PERIOD    4   TIME STEP    7
 ***WARNING***NUZTOP IS 3 AND ALL LAYERS  IN ROW           39  AND COLUMN           76  ARE INACTIVE.
 UNSATURATED FLOW WILL NOT BE ADDED TO ANY LAYER-- SOME WATER MAY FLOW PAST LOWEST LAYER
 ***WARNING***NUZTOP IS 3 AND ALL LAYERS  IN ROW           40  AND COLUMN           76  ARE INACTIVE.
 UNSATURATED FLOW WILL NOT BE ADDED TO ANY LAYER-- SOME WATER MAY FLOW PAST LOWEST LAYER
                                                   Max.-Head-Change                         Max.-Flux-Residual
  Residual-Control   Outer-Iter.   Inner-Iter.     Column Row Layer    Maximum-Head-Change  Column Row Layer    Maximum-Flux-Residual          L2-NORM 
          0                 1           4            61   34     1      -0.2844390096E+00      68   27    1         0.2858027146E+03      0.3921648592E+03
          0                 2           3            52   56     1       0.2902701022E+00      69   29    1         0.6882651423E+02      0.8805333783E+02
          0                 3           2            64   38     1      -0.4626102503E-02      64   38    1        -0.6528198532E+01      0.1904700602E+02
          0                 4           2            63   38     1      -0.4832231535E-02      63   38    1        -0.6828205920E+01      0.1163539843E+02
          0                 5           2            64   38     1      -0.2118812305E-02      64   38    1        -0.3002185378E+01      0.4620988042E+01
          0                 6           1            64   38     1      -0.5962812986E-03      64   38    1        -0.8477022577E+00      0.1582768435E+01

    ------------------------------------------------
       NWT REQUIRED            6 OUTER ITERATIONS 
       AND A TOTAL OF         14 INNER ITERATIONS.
    ------------------------------------------------

 NO OUTPUT CONTROL FOR STRESS PERIOD    4   TIME STEP    8
 ***WARNING***NUZTOP IS 3 AND ALL LAYERS  IN ROW           39  AND COLUMN           76  ARE INACTIVE.
 UNSATURATED FLOW WILL NOT BE ADDED TO ANY LAYER-- SOME WATER MAY FLOW PAST LOWEST LAYER
 ***WARNING***NUZTOP IS 3 AND ALL LAYERS  IN ROW           40  AND COLUMN           76  ARE INACTIVE.
 UNSATURATED FLOW WILL NOT BE ADDED TO ANY LAYER-- SOME WATER MAY FLOW PAST LOWEST LAYER
                                                   Max.-Head-Change                         Max.-Flux-Residual
  Residual-Control   Outer-Iter.   Inner-Iter.     Column Row Layer    Maximum-Head-Change  Column Row Layer    Maximum-Flux-Residual          L2-NORM 
          0                 1           5            52   56     1       0.1284881809E+01      68   27    1         0.1201136796E+03      0.2659350108E+03
          0                 2           4            22   51     1       0.5740934905E+00      69   29    1         0.6132703134E+02      0.7953977936E+02
          0                 3           2            21   51     1       0.6363390102E-02      64   38    1        -0.7678194543E+01      0.1961272369E+02
          0                 4           2            63   38     1      -0.5748615064E-02      63   38    1        -0.8122976123E+01      0.1322130910E+02
          0                 5           2            64   38     1      -0.2540338994E-02      64   38    1        -0.3599117001E+01      0.5255841349E+01
          0                 6           1            64   38     1      -0.7222572692E-03      64   38    1        -0.1026724963E+01      0.1719255118E+01

    ------------------------------------------------
       NWT REQUIRED            6 OUTER ITERATIONS 
       AND A TOTAL OF         16 INNER ITERATIONS.
    ------------------------------------------------

 NO OUTPUT CONTROL FOR STRESS PERIOD    4   TIME STEP    9
 ***WARNING***NUZTOP IS 3 AND ALL LAYERS  IN ROW           39  AND COLUMN           76  ARE INACTIVE.
 UNSATURATED FLOW WILL NOT BE ADDED TO ANY LAYER-- SOME WATER MAY FLOW PAST LOWEST LAYER
 ***WARNING***NUZTOP IS 3 AND ALL LAYERS  IN ROW           40  AND COLUMN           76  ARE INACTIVE.
 UNSATURATED FLOW WILL NOT BE ADDED TO ANY LAYER-- SOME WATER MAY FLOW PAST LOWEST LAYER
                                                   Max.-Head-Change                         Max.-Flux-Residual
  Residual-Control   Outer-Iter.   Inner-Iter.     Column Row Layer    Maximum-Head-Change  Column Row Layer    Maximum-Flux-Residual          L2-NORM 
          0                 1           4            61   30     1       0.1141247669E+01      68   27    1         0.5210052546E+02      0.2373121972E+03
          0                 2           4            68   51     1       0.6683861979E+00      69   29    1         0.3543554053E+02      0.6282451527E+02
          0                 3           2            69   29     1       0.4732274572E-02      69   29    1         0.6096781647E+01      0.1898849059E+02
          0                 4           2            63   38     1       0.3709374881E-02      63   38    1         0.5237573988E+01      0.9919690785E+01
          0                 5           2            64   38     1       0.1569881923E-02      64   38    1         0.2223716411E+01      0.3850449290E+01
          0                 6           1            64   38     1       0.4354938574E-03      64   38    1         0.6185822619E+00      0.1426561899E+01

    ------------------------------------------------
       NWT REQUIRED            6 OUTER ITERATIONS 
       AND A TOTAL OF         15 INNER ITERATIONS.
    ------------------------------------------------

 NO OUTPUT CONTROL FOR STRESS PERIOD    4   TIME STEP   10
 ***WARNING***NUZTOP IS 3 AND ALL LAYERS  IN ROW           39  AND COLUMN           76  ARE INACTIVE.
 UNSATURATED FLOW WILL NOT BE ADDED TO ANY LAYER-- SOME WATER MAY FLOW PAST LOWEST LAYER
 ***WARNING***NUZTOP IS 3 AND ALL LAYERS  IN ROW           40  AND COLUMN           76  ARE INACTIVE.
 UNSATURATED FLOW WILL NOT BE ADDED TO ANY LAYER-- SOME WATER MAY FLOW PAST LOWEST LAYER
                                                   Max.-Head-Change                         Max.-Flux-Residual
  Residual-Control   Outer-Iter.   Inner-Iter.     Column Row Layer    Maximum-Head-Change  Column Row Layer    Maximum-Flux-Residual          L2-NORM 
          0                 1           4            68   51     1       0.3874635132E+00      69   29    1         0.8054728864E+02      0.2514217048E+03
          0                 2           4            54    3     1       0.3203313256E+00      69   29    1         0.1779837636E+02      0.5590903180E+02
          0                 3           2             4   60     1       0.3676184504E-02      69   29    1         0.4632257618E+01      0.1839387083E+02
          0                 4           2            63   38     1       0.3795895694E-02      63   38    1         0.5363759312E+01      0.1004829419E+02
          0                 5           2            64   38     1       0.1622519497E-02      64   38    1         0.2298621892E+01      0.4007654302E+01
          0                 6           1            64   38     1       0.4568690160E-03      64   38    1         0.6492977591E+00      0.1483137144E+01

    ------------------------------------------------
       NWT REQUIRED            6 OUTER ITERATIONS 
       AND A TOTAL OF         15 INNER ITERATIONS.
    ------------------------------------------------

 NO OUTPUT CONTROL FOR STRESS PERIOD    4   TIME STEP   11
 ***WARNING***NUZTOP IS 3 AND ALL LAYERS  IN ROW           39  AND COLUMN           76  ARE INACTIVE.
 UNSATURATED FLOW WILL NOT BE ADDED TO ANY LAYER-- SOME WATER MAY FLOW PAST LOWEST LAYER
 ***WARNING***NUZTOP IS 3 AND ALL LAYERS  IN ROW           40  AND COLUMN           76  ARE INACTIVE.
 UNSATURATED FLOW WILL NOT BE ADDED TO ANY LAYER-- SOME WATER MAY FLOW PAST LOWEST LAYER
                                                   Max.-Head-Change                         Max.-Flux-Residual
  Residual-Control   Outer-Iter.   Inner-Iter.     Column Row Layer    Maximum-Head-Change  Column Row Layer    Maximum-Flux-Residual          L2-NORM 
          0                 1           5            25   33     1       0.7529932239E+00      69   29    1         0.1048978539E+03      0.2921301125E+03
          0                 2           4            57    7     1       0.3399296993E+00      69   29    1         0.2596425548E+02      0.7423090222E+02
          0                 3           3            64   38     1       0.1294427592E-01      64   38    1         0.1824804481E+02      0.3633505897E+02
          0                 4           3            63   38     1       0.1256878377E-01      63   38    1         0.1774943780E+02      0.2733247144E+02
          0                 5           2            64   38     1       0.5336468914E-02      64   38    1         0.7561981319E+01      0.1011276395E+02
          0                 6           2            64   38     1       0.1453938949E-02      64   38    1         0.2066729543E+01      0.2868780566E+01
          0                 7           1            64   38     1       0.3066726567E-03      64   38    1         0.4367185812E+00      0.8698620691E+00

    ------------------------------------------------
       NWT REQUIRED            7 OUTER ITERATIONS 
       AND A TOTAL OF         20 INNER ITERATIONS.
    ------------------------------------------------

 NO OUTPUT CONTROL FOR STRESS PERIOD    4   TIME STEP   12
 ***WARNING***NUZTOP IS 3 AND ALL LAYERS  IN ROW           39  AND COLUMN           76  ARE INACTIVE.
 UNSATURATED FLOW WILL NOT BE ADDED TO ANY LAYER-- SOME WATER MAY FLOW PAST LOWEST LAYER
 ***WARNING***NUZTOP IS 3 AND ALL LAYERS  IN ROW           40  AND COLUMN           76  ARE INACTIVE.
 UNSATURATED FLOW WILL NOT BE ADDED TO ANY LAYER-- SOME WATER MAY FLOW PAST LOWEST LAYER
                                                   Max.-Head-Change                         Max.-Flux-Residual
  Residual-Control   Outer-Iter.   Inner-Iter.     Column Row Layer    Maximum-Head-Change  Column Row Layer    Maximum-Flux-Residual          L2-NORM 
          0                 1           5            39   63     1       0.7351619267E+00      69   29    1         0.1511252754E+03      0.3330605787E+03
          0                 2           4            37   63     1       0.2557356776E+00      69   30    1         0.1410082863E+03      0.1998890933E+03
          0                 3           3            69   30     1      -0.4036731319E-01      69   30    1        -0.5460830284E+02      0.5810689122E+02
          0                 4           2            64   38     1       0.3163056901E-02      63   38    1         0.4465022973E+01      0.9623380855E+01
          0                 5           2            64   38     1       0.1352526154E-02      64   38    1         0.1916133704E+01      0.3768343726E+01
          0                 6           1             3   56     1       0.4705762694E-03      64   38    1         0.5312667828E+00      0.1499016188E+01

    ------------------------------------------------
       NWT REQUIRED            6 OUTER ITERATIONS 
       AND A TOTAL OF         17 INNER ITERATIONS.
    ------------------------------------------------

 NO OUTPUT CONTROL FOR STRESS PERIOD    4   TIME STEP   13
 ***WARNING***NUZTOP IS 3 AND ALL LAYERS  IN ROW           39  AND COLUMN           76  ARE INACTIVE.
 UNSATURATED FLOW WILL NOT BE ADDED TO ANY LAYER-- SOME WATER MAY FLOW PAST LOWEST LAYER
 ***WARNING***NUZTOP IS 3 AND ALL LAYERS  IN ROW           40  AND COLUMN           76  ARE INACTIVE.
 UNSATURATED FLOW WILL NOT BE ADDED TO ANY LAYER-- SOME WATER MAY FLOW PAST LOWEST LAYER
                                                   Max.-Head-Change                         Max.-Flux-Residual
  Residual-Control   Outer-Iter.   Inner-Iter.     Column Row Layer    Maximum-Head-Change  Column Row Layer    Maximum-Flux-Residual          L2-NORM 
          0                 1           5            31   57     1       0.7605684363E+00      69   30    1         0.9455219709E+02      0.3354777377E+03
          0                 2           4            67   18     1       0.7144454435E+00      69   30    1         0.5400181192E+02      0.8322995198E+02
          0                 3           2            69   30     1       0.4985153236E-02      69   30    1         0.6440633803E+01      0.2050651305E+02
          0                 4           2            63   38     1       0.3871836463E-02      63   38    1         0.5468097748E+01      0.1062154794E+02
          0                 5           2            64   38     1       0.1772833620E-02      64   38    1         0.2509799316E+01      0.4369683620E+01
          0                 6           1            64   38     1       0.5203692654E-03      64   38    1         0.7391881032E+00      0.1611167601E+01

    ------------------------------------------------
       NWT REQUIRED            6 OUTER ITERATIONS 
       AND A TOTAL OF         16 INNER ITERATIONS.
    ------------------------------------------------

 NO OUTPUT CONTROL FOR STRESS PERIOD    4   TIME STEP   14
 ***WARNING***NUZTOP IS 3 AND ALL LAYERS  IN ROW           39  AND COLUMN           76  ARE INACTIVE.
 UNSATURATED FLOW WILL NOT BE ADDED TO ANY LAYER-- SOME WATER MAY FLOW PAST LOWEST LAYER
 ***WARNING***NUZTOP IS 3 AND ALL LAYERS  IN ROW           40  AND COLUMN           76  ARE INACTIVE.
 UNSATURATED FLOW WILL NOT BE ADDED TO ANY LAYER-- SOME WATER MAY FLOW PAST LOWEST LAYER
                                                   Max.-Head-Change                         Max.-Flux-Residual
  Residual-Control   Outer-Iter.   Inner-Iter.     Column Row Layer    Maximum-Head-Change  Column Row Layer    Maximum-Flux-Residual          L2-NORM 
          0                 1           5            72   64     1       0.9628017811E+00      69   30    1         0.1501112311E+03      0.3526505781E+03
          0                 2           4            41   29     1       0.4568934384E+00      69   30    1         0.2510405617E+02      0.6142220095E+02
          0                 3           2             7   58     1       0.3417978057E-02       6   57    1         0.3183948347E+01      0.1756900459E+02
          0                 4           2             7   59     1       0.1659153355E-02       6   57    1         0.1217416923E+01      0.6791724999E+01
          0                 5           1             3   56     1       0.8459044166E-03      64   38    1         0.5642581457E+00      0.2943524349E+01

    ------------------------------------------------
       NWT REQUIRED            5 OUTER ITERATIONS 
       AND A TOTAL OF         14 INNER ITERATIONS.
    ------------------------------------------------

 NO OUTPUT CONTROL FOR STRESS PERIOD    4   TIME STEP   15
 ***WARNING***NUZTOP IS 3 AND ALL LAYERS  IN ROW           39  AND COLUMN           76  ARE INACTIVE.
 UNSATURATED FLOW WILL NOT BE ADDED TO ANY LAYER-- SOME WATER MAY FLOW PAST LOWEST LAYER
 ***WARNING***NUZTOP IS 3 AND ALL LAYERS  IN ROW           40  AND COLUMN           76  ARE INACTIVE.
 UNSATURATED FLOW WILL NOT BE ADDED TO ANY LAYER-- SOME WATER MAY FLOW PAST LOWEST LAYER
                                                   Max.-Head-Change                         Max.-Flux-Residual
  Residual-Control   Outer-Iter.   Inner-Iter.     Column Row Layer    Maximum-Head-Change  Column Row Layer    Maximum-Flux-Residual          L2-NORM 
          0                 1           5            41   29     1       0.1197801160E+01      69   30    1         0.1662190882E+03      0.3580912982E+03
          0                 2           4            68   49     1       0.3506013575E+00      69   30    1        -0.1797034326E+03      0.1879814507E+03
          0                 3           3            69   30     1       0.2750058920E-01      69   30    1         0.8738904603E+02      0.8930028484E+02
          0                 4           2            69   30     1       0.2331175211E-02      69   30    1         0.7399110341E+01      0.1008251262E+02
          0                 5           1             3   56     1       0.8403534389E-03      69   30    1         0.6295654750E+00      0.2946902426E+01

    ------------------------------------------------
       NWT REQUIRED            5 OUTER ITERATIONS 
       AND A TOTAL OF         15 INNER ITERATIONS.
    ------------------------------------------------

 NO OUTPUT CONTROL FOR STRESS PERIOD    4   TIME STEP   16
 ***WARNING***NUZTOP IS 3 AND ALL LAYERS  IN ROW           39  AND COLUMN           76  ARE INACTIVE.
 UNSATURATED FLOW WILL NOT BE ADDED TO ANY LAYER-- SOME WATER MAY FLOW PAST LOWEST LAYER
 ***WARNING***NUZTOP IS 3 AND ALL LAYERS  IN ROW           40  AND COLUMN           76  ARE INACTIVE.
 UNSATURATED FLOW WILL NOT BE ADDED TO ANY LAYER-- SOME WATER MAY FLOW PAST LOWEST LAYER
                                                   Max.-Head-Change                         Max.-Flux-Residual
  Residual-Control   Outer-Iter.   Inner-Iter.     Column Row Layer    Maximum-Head-Change  Column Row Layer    Maximum-Flux-Residual          L2-NORM 
          0                 1           5            68   49     1       0.1059077516E+01      69   30    1         0.7041484827E+02      0.3234058595E+03
          0                 2           2            47   21     1       0.8043978431E-02       6   57    1         0.8122747833E+01      0.5322815602E+02
          0                 3           2             7   59     1       0.3348025885E-02       6   57    1         0.3102791501E+01      0.1727133844E+02
          0                 4           2             7   59     1       0.1627686280E-02       6   57    1         0.1186463970E+01      0.6655543166E+01
          0                 5           1             3   56     1       0.8342335041E-03       3   56    1         0.5454036499E+00      0.2847481892E+01

    ------------------------------------------------
       NWT REQUIRED            5 OUTER ITERATIONS 
       AND A TOTAL OF         12 INNER ITERATIONS.
    ------------------------------------------------

 NO OUTPUT CONTROL FOR STRESS PERIOD    4   TIME STEP   17
 ***WARNING***NUZTOP IS 3 AND ALL LAYERS  IN ROW           39  AND COLUMN           76  ARE INACTIVE.
 UNSATURATED FLOW WILL NOT BE ADDED TO ANY LAYER-- SOME WATER MAY FLOW PAST LOWEST LAYER
 ***WARNING***NUZTOP IS 3 AND ALL LAYERS  IN ROW           40  AND COLUMN           76  ARE INACTIVE.
 UNSATURATED FLOW WILL NOT BE ADDED TO ANY LAYER-- SOME WATER MAY FLOW PAST LOWEST LAYER
                                                   Max.-Head-Change                         Max.-Flux-Residual
  Residual-Control   Outer-Iter.   Inner-Iter.     Column Row Layer    Maximum-Head-Change  Column Row Layer    Maximum-Flux-Residual          L2-NORM 
          0                 1           4            68   49     2       0.2406404806E+00      39   61    1         0.4780658351E+02      0.3120716048E+03
          0                 2           5            39   61     1       0.4384415175E+00      39   61    1         0.2735698285E+02      0.5988210136E+02
          0                 3           2            41   29     1       0.4196795668E-02       6   57    1         0.3051275902E+01      0.1728009241E+02
          0                 4           2             7   59     1       0.1604908642E-02       6   57    1         0.1166813677E+01      0.6647409744E+01
          0                 5           1             3   56     1       0.8156249610E-03       3   56    1         0.5331949829E+00      0.2828556160E+01

    ------------------------------------------------
       NWT REQUIRED            5 OUTER ITERATIONS 
       AND A TOTAL OF         14 INNER ITERATIONS.
    ------------------------------------------------

 NO OUTPUT CONTROL FOR STRESS PERIOD    4   TIME STEP   18
 ***WARNING***NUZTOP IS 3 AND ALL LAYERS  IN ROW           39  AND COLUMN           76  ARE INACTIVE.
 UNSATURATED FLOW WILL NOT BE ADDED TO ANY LAYER-- SOME WATER MAY FLOW PAST LOWEST LAYER
 ***WARNING***NUZTOP IS 3 AND ALL LAYERS  IN ROW           40  AND COLUMN           76  ARE INACTIVE.
 UNSATURATED FLOW WILL NOT BE ADDED TO ANY LAYER-- SOME WATER MAY FLOW PAST LOWEST LAYER
                                                   Max.-Head-Change                         Max.-Flux-Residual
  Residual-Control   Outer-Iter.   Inner-Iter.     Column Row Layer    Maximum-Head-Change  Column Row Layer    Maximum-Flux-Residual          L2-NORM 
          0                 1           5            41   28     1       0.7824422102E+00      39   60    1         0.4851981945E+02      0.3079794870E+03
          0                 2           4            26   33     1       0.1186636183E+01      26   33    1         0.1645846474E+02      0.5733986180E+02
          0                 3           2            56   34     1      -0.7150449308E-02       6   57    1         0.3019971976E+01      0.1758540103E+02
          0                 4           2             7   59     1       0.1592332153E-02      64   38    1         0.1840636536E+01      0.7060178246E+01
          0                 5           1             3   56     1       0.8201608789E-03      64   38    1         0.7263209356E+00      0.2960462882E+01

    ------------------------------------------------
       NWT REQUIRED            5 OUTER ITERATIONS 
       AND A TOTAL OF         14 INNER ITERATIONS.
    ------------------------------------------------

 NO OUTPUT CONTROL FOR STRESS PERIOD    4   TIME STEP   19
 ***WARNING***NUZTOP IS 3 AND ALL LAYERS  IN ROW           39  AND COLUMN           76  ARE INACTIVE.
 UNSATURATED FLOW WILL NOT BE ADDED TO ANY LAYER-- SOME WATER MAY FLOW PAST LOWEST LAYER
 ***WARNING***NUZTOP IS 3 AND ALL LAYERS  IN ROW           40  AND COLUMN           76  ARE INACTIVE.
 UNSATURATED FLOW WILL NOT BE ADDED TO ANY LAYER-- SOME WATER MAY FLOW PAST LOWEST LAYER
                                                   Max.-Head-Change                         Max.-Flux-Residual
  Residual-Control   Outer-Iter.   Inner-Iter.     Column Row Layer    Maximum-Head-Change  Column Row Layer    Maximum-Flux-Residual          L2-NORM 
          0                 1           5            26   33     1       0.7593347015E+00      39   60    1         0.5759846757E+02      0.3089487348E+03
          0                 2           4            62   32     1       0.1831252849E+01      62   32    1         0.1066911873E+02      0.5423288825E+02
          0                 3           2            62   32     1      -0.6687438654E-02       6   57    1         0.2982077203E+01      0.1695728225E+02
          0                 4           2             7   59     1       0.1576325474E-02       6   57    1         0.1140594967E+01      0.6615963823E+01
          0                 5           1             3   56     1       0.8154080792E-03       3   56    1         0.5330701056E+00      0.2836272627E+01

    ------------------------------------------------
       NWT REQUIRED            5 OUTER ITERATIONS 
       AND A TOTAL OF         14 INNER ITERATIONS.
    ------------------------------------------------

 NO OUTPUT CONTROL FOR STRESS PERIOD    4   TIME STEP   20
 ***WARNING***NUZTOP IS 3 AND ALL LAYERS  IN ROW           39  AND COLUMN           76  ARE INACTIVE.
 UNSATURATED FLOW WILL NOT BE ADDED TO ANY LAYER-- SOME WATER MAY FLOW PAST LOWEST LAYER
 ***WARNING***NUZTOP IS 3 AND ALL LAYERS  IN ROW           40  AND COLUMN           76  ARE INACTIVE.
 UNSATURATED FLOW WILL NOT BE ADDED TO ANY LAYER-- SOME WATER MAY FLOW PAST LOWEST LAYER
                                                   Max.-Head-Change                         Max.-Flux-Residual
  Residual-Control   Outer-Iter.   Inner-Iter.     Column Row Layer    Maximum-Head-Change  Column Row Layer    Maximum-Flux-Residual          L2-NORM 
          0                 1           5            72   63     1       0.1335665210E+01      39   60    1         0.5649725537E+02      0.3065193122E+03
          0                 2           4            23   51     1       0.7485012783E+00      23   51    1         0.1391537564E+02      0.5566554876E+02
          0                 3           2             7   59     1       0.3208498427E-02       6   57    1         0.2943677062E+01      0.1682880138E+02
          0                 4           2             7   59     1       0.1559817780E-02       6   57    1         0.1125996883E+01      0.6519899436E+01
          0                 5           1             3   56     1       0.8088422001E-03      63   38    1         0.8702637205E+00      0.3025656023E+01

    ------------------------------------------------
       NWT REQUIRED            5 OUTER ITERATIONS 
       AND A TOTAL OF         14 INNER ITERATIONS.
    ------------------------------------------------

 NO OUTPUT CONTROL FOR STRESS PERIOD    4   TIME STEP   21
 ***WARNING***NUZTOP IS 3 AND ALL LAYERS  IN ROW           39  AND COLUMN           76  ARE INACTIVE.
 UNSATURATED FLOW WILL NOT BE ADDED TO ANY LAYER-- SOME WATER MAY FLOW PAST LOWEST LAYER
 ***WARNING***NUZTOP IS 3 AND ALL LAYERS  IN ROW           40  AND COLUMN           76  ARE INACTIVE.
 UNSATURATED FLOW WILL NOT BE ADDED TO ANY LAYER-- SOME WATER MAY FLOW PAST LOWEST LAYER
                                                   Max.-Head-Change                         Max.-Flux-Residual
  Residual-Control   Outer-Iter.   Inner-Iter.     Column Row Layer    Maximum-Head-Change  Column Row Layer    Maximum-Flux-Residual          L2-NORM 
          0                 1           5            67   49     1       0.1656853622E+01      39   60    1         0.5490075997E+02      0.3045707143E+03
          0                 2           3            59   13     1       0.4501399528E+00      59   13    1         0.1024597016E+02      0.5186577917E+02
          0                 3           2             4   47     1      -0.3302449335E-02       6   57    1         0.2905826135E+01      0.1662081989E+02
          0                 4           2             4   47     1      -0.1598111632E-02      63   38    1         0.1131058234E+01      0.6551852404E+01
          0                 5           1             3   56     1       0.8011024529E-03       3   56    1         0.5238131638E+00      0.2812259724E+01

    ------------------------------------------------
       NWT REQUIRED            5 OUTER ITERATIONS 
       AND A TOTAL OF         13 INNER ITERATIONS.
    ------------------------------------------------

 NO OUTPUT CONTROL FOR STRESS PERIOD    4   TIME STEP   22
 ***WARNING***NUZTOP IS 3 AND ALL LAYERS  IN ROW           39  AND COLUMN           76  ARE INACTIVE.
 UNSATURATED FLOW WILL NOT BE ADDED TO ANY LAYER-- SOME WATER MAY FLOW PAST LOWEST LAYER
 ***WARNING***NUZTOP IS 3 AND ALL LAYERS  IN ROW           40  AND COLUMN           76  ARE INACTIVE.
 UNSATURATED FLOW WILL NOT BE ADDED TO ANY LAYER-- SOME WATER MAY FLOW PAST LOWEST LAYER
                                                   Max.-Head-Change                         Max.-Flux-Residual
  Residual-Control   Outer-Iter.   Inner-Iter.     Column Row Layer    Maximum-Head-Change  Column Row Layer    Maximum-Flux-Residual          L2-NORM 
          0                 1           5            28   53     1       0.6191130542E+00      39   60    1         0.5331289153E+02      0.3028010333E+03
          0                 2           3            73   57     1       0.2979362936E+00       6   57    1         0.7504589278E+01      0.5062033533E+02
          0                 3           2             4   47     1      -0.3328315925E-02       6   57    1         0.2868273645E+01      0.1646551997E+02
          0                 4           2             4   47     1      -0.1610656748E-02       6   57    1         0.1097116977E+01      0.6381621978E+01
          0                 5           1             3   56     1       0.7939209718E-03       3   56    1         0.5191055089E+00      0.2732690554E+01

    ------------------------------------------------
       NWT REQUIRED            5 OUTER ITERATIONS 
       AND A TOTAL OF         13 INNER ITERATIONS.
    ------------------------------------------------

 NO OUTPUT CONTROL FOR STRESS PERIOD    4   TIME STEP   23
 ***WARNING***NUZTOP IS 3 AND ALL LAYERS  IN ROW           39  AND COLUMN           76  ARE INACTIVE.
 UNSATURATED FLOW WILL NOT BE ADDED TO ANY LAYER-- SOME WATER MAY FLOW PAST LOWEST LAYER
 ***WARNING***NUZTOP IS 3 AND ALL LAYERS  IN ROW           40  AND COLUMN           76  ARE INACTIVE.
 UNSATURATED FLOW WILL NOT BE ADDED TO ANY LAYER-- SOME WATER MAY FLOW PAST LOWEST LAYER
                                                   Max.-Head-Change                         Max.-Flux-Residual
  Residual-Control   Outer-Iter.   Inner-Iter.     Column Row Layer    Maximum-Head-Change  Column Row Layer    Maximum-Flux-Residual          L2-NORM 
          0                 1           4            67   49     2       0.2139239601E+00      39   60    1         0.5178571041E+02      0.3007469752E+03
          0                 2           4            68   47     1       0.1527405391E+01      67   19    1         0.9903840439E+01      0.5174723380E+02
          0                 3           2            68   47     1      -0.7157467858E-02       6   57    1         0.2836018203E+01      0.1646205014E+02
          0                 4           2             4   47     1      -0.1628263639E-02       6   57    1         0.1084692516E+01      0.6387650997E+01
          0                 5           1             3   56     1       0.8065714978E-03       3   56    1         0.5272384904E+00      0.2705768887E+01

    ------------------------------------------------
       NWT REQUIRED            5 OUTER ITERATIONS 
       AND A TOTAL OF         13 INNER ITERATIONS.
    ------------------------------------------------

 NO OUTPUT CONTROL FOR STRESS PERIOD    4   TIME STEP   24
 ***WARNING***NUZTOP IS 3 AND ALL LAYERS  IN ROW           39  AND COLUMN           76  ARE INACTIVE.
 UNSATURATED FLOW WILL NOT BE ADDED TO ANY LAYER-- SOME WATER MAY FLOW PAST LOWEST LAYER
 ***WARNING***NUZTOP IS 3 AND ALL LAYERS  IN ROW           40  AND COLUMN           76  ARE INACTIVE.
 UNSATURATED FLOW WILL NOT BE ADDED TO ANY LAYER-- SOME WATER MAY FLOW PAST LOWEST LAYER
                                                   Max.-Head-Change                         Max.-Flux-Residual
  Residual-Control   Outer-Iter.   Inner-Iter.     Column Row Layer    Maximum-Head-Change  Column Row Layer    Maximum-Flux-Residual          L2-NORM 
          0                 1           5             3   58     1       0.1670625085E+01      39   60    1         0.5033085285E+02      0.2975754520E+03
          0                 2           3            24   51     1       0.2906097718E+00       6   57    1         0.7420591936E+01      0.5045472585E+02
          0                 3           3            23   52     1       0.1909032121E-01       6   57    1         0.2837739829E+01      0.1659092556E+02
          0                 4           2             3   56     1       0.1665615512E-02       3   56    1         0.1088507469E+01      0.6514499727E+01
          0                 5           1             3   56     1       0.9718999304E-03       3   56    1         0.6353174168E+00      0.2804249761E+01

    ------------------------------------------------
       NWT REQUIRED            5 OUTER ITERATIONS 
       AND A TOTAL OF         14 INNER ITERATIONS.
    ------------------------------------------------

 NO OUTPUT CONTROL FOR STRESS PERIOD    4   TIME STEP   25
 ***WARNING***NUZTOP IS 3 AND ALL LAYERS  IN ROW           39  AND COLUMN           76  ARE INACTIVE.
 UNSATURATED FLOW WILL NOT BE ADDED TO ANY LAYER-- SOME WATER MAY FLOW PAST LOWEST LAYER
 ***WARNING***NUZTOP IS 3 AND ALL LAYERS  IN ROW           40  AND COLUMN           76  ARE INACTIVE.
 UNSATURATED FLOW WILL NOT BE ADDED TO ANY LAYER-- SOME WATER MAY FLOW PAST LOWEST LAYER
                                                   Max.-Head-Change                         Max.-Flux-Residual
  Residual-Control   Outer-Iter.   Inner-Iter.     Column Row Layer    Maximum-Head-Change  Column Row Layer    Maximum-Flux-Residual          L2-NORM 
          0                 1           5            23   52     1       0.1354352050E+01      39   60    1         0.4894770261E+02      0.2951542539E+03
          0                 2           4            23   33     1       0.6626291659E+00      23   33    1         0.8727595177E+01      0.5079330330E+02
          0                 3           2             4   47     1      -0.3409721892E-02       6   57    1         0.2821698112E+01      0.1667183899E+02
          0                 4           2             2   58     1       0.1733197186E-02       2   58    1         0.1130032723E+01      0.6541952031E+01
          0                 5           2             2   58     1       0.1022890298E-02       2   58    1         0.6670502271E+00      0.2838367136E+01
          0                 6           1             2   58     1       0.6036619739E-03       2   58    1         0.3936773751E+00      0.1353130099E+01

    ------------------------------------------------
       NWT REQUIRED            6 OUTER ITERATIONS 
       AND A TOTAL OF         16 INNER ITERATIONS.
    ------------------------------------------------

 NO OUTPUT CONTROL FOR STRESS PERIOD    4   TIME STEP   26
 ***WARNING***NUZTOP IS 3 AND ALL LAYERS  IN ROW           39  AND COLUMN           76  ARE INACTIVE.
 UNSATURATED FLOW WILL NOT BE ADDED TO ANY LAYER-- SOME WATER MAY FLOW PAST LOWEST LAYER
 ***WARNING***NUZTOP IS 3 AND ALL LAYERS  IN ROW           40  AND COLUMN           76  ARE INACTIVE.
 UNSATURATED FLOW WILL NOT BE ADDED TO ANY LAYER-- SOME WATER MAY FLOW PAST LOWEST LAYER
                                                   Max.-Head-Change                         Max.-Flux-Residual
  Residual-Control   Outer-Iter.   Inner-Iter.     Column Row Layer    Maximum-Head-Change  Column Row Layer    Maximum-Flux-Residual          L2-NORM 
          0                 1           5            23   33     1       0.6553261450E+00      39   60    1         0.4763170701E+02      0.2928815385E+03
          0                 2           4            62   31     1       0.2822600652E+01      62   31    1         0.1550951894E+02      0.5654713469E+02
          0                 3           2            62   31     1      -0.1132250330E-01       6   57    1         0.2794477442E+01      0.1680693248E+02
          0                 4           2             2   58     1       0.1740899656E-02       2   58    1         0.1135105001E+01      0.6559467559E+01
          0                 5           2             2   58     1       0.1027413722E-02       2   58    1         0.6700154916E+00      0.2850362280E+01
          0                 6           1             2   58     1       0.6063238475E-03       2   58    1         0.3954191548E+00      0.1360232069E+01

    ------------------------------------------------
       NWT REQUIRED            6 OUTER ITERATIONS 
       AND A TOTAL OF         16 INNER ITERATIONS.
    ------------------------------------------------

 NO OUTPUT CONTROL FOR STRESS PERIOD    4   TIME STEP   27
 ***WARNING***NUZTOP IS 3 AND ALL LAYERS  IN ROW           39  AND COLUMN           76  ARE INACTIVE.
 UNSATURATED FLOW WILL NOT BE ADDED TO ANY LAYER-- SOME WATER MAY FLOW PAST LOWEST LAYER
 ***WARNING***NUZTOP IS 3 AND ALL LAYERS  IN ROW           40  AND COLUMN           76  ARE INACTIVE.
 UNSATURATED FLOW WILL NOT BE ADDED TO ANY LAYER-- SOME WATER MAY FLOW PAST LOWEST LAYER
                                                   Max.-Head-Change                         Max.-Flux-Residual
  Residual-Control   Outer-Iter.   Inner-Iter.     Column Row Layer    Maximum-Head-Change  Column Row Layer    Maximum-Flux-Residual          L2-NORM 
          0                 1           5            68   50     1       0.2101036739E+01      39   60    1         0.4616506468E+02      0.2882036773E+03
          0                 2           2             6   46     1      -0.7474615157E-02       6   57    1         0.7202517777E+01      0.4972781920E+02
          0                 3           2             4   47     1      -0.3420897258E-02       6   57    1         0.2748515114E+01      0.1649888671E+02
          0                 4           2             2   58     1       0.1729586117E-02       2   58    1         0.1127766899E+01      0.6447524979E+01
          0                 5           2             2   58     1       0.1020719497E-02       2   58    1         0.6656621520E+00      0.2803516429E+01
          0                 6           1             2   58     1       0.6023337819E-03       2   58    1         0.3928429752E+00      0.1336595173E+01

    ------------------------------------------------
       NWT REQUIRED            6 OUTER ITERATIONS 
       AND A TOTAL OF         14 INNER ITERATIONS.
    ------------------------------------------------

 NO OUTPUT CONTROL FOR STRESS PERIOD    4   TIME STEP   28
 ***WARNING***NUZTOP IS 3 AND ALL LAYERS  IN ROW           39  AND COLUMN           76  ARE INACTIVE.
 UNSATURATED FLOW WILL NOT BE ADDED TO ANY LAYER-- SOME WATER MAY FLOW PAST LOWEST LAYER
 ***WARNING***NUZTOP IS 3 AND ALL LAYERS  IN ROW           40  AND COLUMN           76  ARE INACTIVE.
 UNSATURATED FLOW WILL NOT BE ADDED TO ANY LAYER-- SOME WATER MAY FLOW PAST LOWEST LAYER
                                                   Max.-Head-Change                         Max.-Flux-Residual
  Residual-Control   Outer-Iter.   Inner-Iter.     Column Row Layer    Maximum-Head-Change  Column Row Layer    Maximum-Flux-Residual          L2-NORM 
          0                 1           5            68   50     2       0.5110611186E+00      39   60    1         0.4489048738E+02      0.2868571331E+03
          0                 2           4            24   52     1       0.9635412685E+00      24   52    1         0.1653046783E+02      0.5613294094E+02
          0                 3           2            47   21     1       0.4506753070E-02      47   21    1         0.3336275764E+01      0.1703656129E+02
          0                 4           2             2   58     1       0.1723493017E-02      47   21    1         0.1200042269E+01      0.6664570889E+01
          0                 5           2             2   58     1       0.1017146632E-02       2   58    1         0.6633090513E+00      0.2848097976E+01
          0                 6           1             2   58     1       0.6002392679E-03       2   58    1         0.3914646382E+00      0.1349039030E+01

    ------------------------------------------------
       NWT REQUIRED            6 OUTER ITERATIONS 
       AND A TOTAL OF         16 INNER ITERATIONS.
    ------------------------------------------------

 NO OUTPUT CONTROL FOR STRESS PERIOD    4   TIME STEP   29
 ***WARNING***NUZTOP IS 3 AND ALL LAYERS  IN ROW           39  AND COLUMN           76  ARE INACTIVE.
 UNSATURATED FLOW WILL NOT BE ADDED TO ANY LAYER-- SOME WATER MAY FLOW PAST LOWEST LAYER
 ***WARNING***NUZTOP IS 3 AND ALL LAYERS  IN ROW           40  AND COLUMN           76  ARE INACTIVE.
 UNSATURATED FLOW WILL NOT BE ADDED TO ANY LAYER-- SOME WATER MAY FLOW PAST LOWEST LAYER
                                                   Max.-Head-Change                         Max.-Flux-Residual
  Residual-Control   Outer-Iter.   Inner-Iter.     Column Row Layer    Maximum-Head-Change  Column Row Layer    Maximum-Flux-Residual          L2-NORM 
          0                 1           5            47   22     1       0.9518769891E+00      39   60    1         0.4401154240E+02      0.2858719305E+03
          0                 2           5            43   28     1       0.8005085246E+00      39   60    1         0.2278589025E+02      0.5793806655E+02
          0                 3           2            47   21     1       0.3973648913E-02      47   21    1         0.2937364730E+01      0.1670729233E+02
          0                 4           2             2   58     1       0.1714382313E-02       2   58    1         0.1117785952E+01      0.6482725741E+01
          0                 5           2             2   58     1       0.1011795736E-02       2   58    1         0.6598061680E+00      0.2814616049E+01
          0                 6           1             2   58     1       0.5970963830E-03       2   58    1         0.3894064182E+00      0.1339871820E+01

    ------------------------------------------------
       NWT REQUIRED            6 OUTER ITERATIONS 
       AND A TOTAL OF         17 INNER ITERATIONS.
    ------------------------------------------------

 NO OUTPUT CONTROL FOR STRESS PERIOD    4   TIME STEP   30
 ***WARNING***NUZTOP IS 3 AND ALL LAYERS  IN ROW           39  AND COLUMN           76  ARE INACTIVE.
 UNSATURATED FLOW WILL NOT BE ADDED TO ANY LAYER-- SOME WATER MAY FLOW PAST LOWEST LAYER
 ***WARNING***NUZTOP IS 3 AND ALL LAYERS  IN ROW           40  AND COLUMN           76  ARE INACTIVE.
 UNSATURATED FLOW WILL NOT BE ADDED TO ANY LAYER-- SOME WATER MAY FLOW PAST LOWEST LAYER
                                                   Max.-Head-Change                         Max.-Flux-Residual
  Residual-Control   Outer-Iter.   Inner-Iter.     Column Row Layer    Maximum-Head-Change  Column Row Layer    Maximum-Flux-Residual          L2-NORM 
          0                 1           5            39   65     1       0.5912452887E+00      39   59    1         0.3700986067E+02      0.2833583090E+03
          0                 2           3            59   36     1       0.2879363333E+00      47   21    1         0.8153257558E+01      0.5000254656E+02
          0                 3           2            47   21     1       0.3973082039E-02      47   21    1         0.2936896531E+01      0.1665205927E+02
          0                 4           2             2   58     1       0.1704388577E-02       2   58    1         0.1111251101E+01      0.6489758706E+01
          0                 5           2             2   58     1       0.1005919918E-02       2   58    1         0.6559608674E+00      0.2816929952E+01
          0                 6           1             2   58     1       0.5936416819E-03       2   58    1         0.3871455681E+00      0.1337608047E+01

    ------------------------------------------------
       NWT REQUIRED            6 OUTER ITERATIONS 
       AND A TOTAL OF         15 INNER ITERATIONS.
    ------------------------------------------------

 NO OUTPUT CONTROL FOR STRESS PERIOD    4   TIME STEP   31



 STREAM LISTING     PERIOD      4   STEP       31

 LAYER ROW COL. STREAM  RCH.   FLOW INTO    STREAM     FLOW OUT OF   OVRLND.    DIRECT     STREAM      STREAM      STREAM     STREAM  STREAMBED   FLOW TO   CHNG. UNSAT. 
                SEG.NO.  NO.   STRM. RCH.    LOSS       STRM. RCH.   RUNOFF     PRECIP       ET         HEAD        DEPTH      WIDTH  CONDCTNC.   WAT. TAB.

   1   18   62     1     1    0.0000E+00 -1.4549E+01   1.5420E+01  8.702E-01  0.000E+00  0.000E+00  2.07300E+03  6.044E-04  3.000E+00  1.909E+03  0.000E+00  0.000E+00
   1   19   63     1     2    1.5420E+01 -6.0147E+01   7.6437E+01  8.702E-01  0.000E+00  0.000E+00  2.06300E+03  1.773E-03  3.000E+00  1.909E+03  0.000E+00  0.000E+00
   1   20   64     1     3    7.6437E+01 -8.8298E+01   1.6561E+02  8.702E-01  0.000E+00  0.000E+00  2.05400E+03  3.469E-03  3.000E+00  1.630E+03  0.000E+00  0.000E+00
   1   21   64     1     4    1.6561E+02 -9.3046E+01   2.5952E+02  8.702E-01  0.000E+00  0.000E+00  2.05101E+03  5.987E-03  3.000E+00  1.630E+03  0.000E+00  0.000E+00
   1   22   65     1     5    2.5952E+02 -1.6126E+01   2.7652E+02  8.702E-01  0.000E+00  0.000E+00  2.04801E+03  5.861E-03  3.000E+00  9.546E+02  0.000E+00  0.000E+00
   1   20   66     2     1    0.0000E+00 -5.4572E+01   5.4572E+01  0.000E+00  0.000E+00  0.000E+00  2.05300E+03  1.832E-03  3.000E+00  1.909E+03  0.000E+00  0.000E+00
   1   21   65     2     2    5.4572E+01 -3.7616E+00   5.8334E+01  0.000E+00  0.000E+00  0.000E+00  2.05100E+03  2.854E-03  3.000E+00  1.630E+03  0.000E+00  0.000E+00
   1   22   65     2     3    5.8334E+01 -1.3829E+01   7.2163E+01  0.000E+00  0.000E+00  0.000E+00  2.04800E+03  2.265E-03  3.000E+00  6.750E+02  0.000E+00  0.000E+00
   1   22   65     3     1    3.4868E+02 -1.1144E+01   3.5982E+02  0.000E+00  0.000E+00  0.000E+00  2.04801E+03  6.244E-03  3.000E+00  6.750E+02  0.000E+00  0.000E+00
   1   23   65     3     2    3.5982E+02 -1.0207E+02   4.6189E+02  0.000E+00  0.000E+00  0.000E+00  2.04501E+03  1.095E-02  3.000E+00  1.630E+03  0.000E+00  0.000E+00
   1   24   66     3     3    4.6189E+02 -3.0498E+01   4.9239E+02  0.000E+00  0.000E+00  0.000E+00  2.04542E+03  4.171E-01  3.000E+00  1.909E+03  0.000E+00  0.000E+00
   1   25   67     3     4    4.9239E+02  5.0968E+00   4.8730E+02  0.000E+00  0.000E+00  0.000E+00  2.04501E+03  1.276E-02  3.000E+00  1.909E+03  0.000E+00  0.000E+00
   1   26   68     3     5    4.8730E+02 -1.9133E+01   5.0643E+02  0.000E+00  0.000E+00  0.000E+00  2.04201E+03  1.125E-02  3.000E+00  1.630E+03  0.000E+00  0.000E+00
   1   27   68     3     6    5.0643E+02  8.6273E+01   4.2016E+02  0.000E+00  0.000E+00  0.000E+00  2.04101E+03  9.555E-03  3.000E+00  1.630E+03  0.000E+00  0.000E+00
   1   28   69     3     7    4.2016E+02  9.7776E+01   3.2238E+02  0.000E+00  0.000E+00  0.000E+00  2.03601E+03  6.796E-03  3.000E+00  1.630E+03  9.887E+01 -1.099E+00
   1   29   69     3     8    3.2238E+02  6.1210E+01   2.6117E+02  0.000E+00  0.000E+00  0.000E+00  2.02901E+03  5.427E-03  3.000E+00  1.350E+03  0.000E+00  0.000E+00
   1   30   69     3     9    2.6117E+02  1.1305E+01   2.4987E+02  0.000E+00  0.000E+00  0.000E+00  2.02300E+03  4.809E-03  3.000E+00  1.630E+03  0.000E+00  0.000E+00
   1   31   70     3    10    2.4987E+02 -1.1781E+02   3.6767E+02  0.000E+00  0.000E+00  0.000E+00  2.01101E+03  5.387E-03  3.000E+00  1.630E+03  0.000E+00  0.000E+00
   1   32   70     3    11    3.6767E+02 -2.1743E+02   5.8510E+02  0.000E+00  0.000E+00  0.000E+00  2.00501E+03  8.424E-03  3.000E+00  1.350E+03  0.000E+00  0.000E+00
   1   33   70     3    12    5.8510E+02  4.2229E+00   5.8088E+02  0.000E+00  0.000E+00  0.000E+00  2.00301E+03  7.761E-03  3.000E+00  1.630E+03  0.000E+00  0.000E+00
   1   34   69     3    13    5.8088E+02 -3.9268E+01   6.2014E+02  0.000E+00  0.000E+00  0.000E+00  1.98601E+03  6.889E-03  3.000E+00  1.630E+03  0.000E+00  0.000E+00
   1   35   69     3    14    6.2014E+02 -5.2651E+01   6.7279E+02  0.000E+00  0.000E+00  0.000E+00  1.97301E+03  7.805E-03  3.000E+00  1.350E+03  0.000E+00  0.000E+00
   1   36   69     3    15    6.7279E+02 -5.6960E+00   6.7849E+02  0.000E+00  0.000E+00  0.000E+00  1.96701E+03  8.783E-03  3.000E+00  1.350E+03  0.000E+00  0.000E+00
   1   37   69     3    16    6.7849E+02  1.2462E+00   6.7724E+02  0.000E+00  0.000E+00  0.000E+00  1.95901E+03  8.800E-03  3.000E+00  1.350E+03  0.000E+00  0.000E+00
   1   38   69     3    17    6.7724E+02  1.9448E+00   6.7530E+02  0.000E+00  0.000E+00  0.000E+00  1.95301E+03  9.507E-03  3.000E+00  1.630E+03  0.000E+00  0.000E+00
   1   39   70     3    18    6.7530E+02 -1.0907E+01   6.8621E+02  0.000E+00  0.000E+00  0.000E+00  1.94601E+03  8.548E-03  3.000E+00  9.546E+02  0.000E+00  0.000E+00
   1   25   49     4     1    0.0000E+00 -1.7746E+02   1.7746E+02  0.000E+00  0.000E+00  0.000E+00  2.03500E+03  2.553E-03  3.000E+00  1.909E+03  0.000E+00  0.000E+00
   1   26   50     4     2    1.7746E+02 -1.0910E+02   2.8657E+02  0.000E+00  0.000E+00  0.000E+00  2.02600E+03  4.930E-03  3.000E+00  1.909E+03  0.000E+00  0.000E+00
   1   27   51     4     3    2.8657E+02 -9.1627E+01   3.7819E+02  0.000E+00  0.000E+00  0.000E+00  2.01901E+03  6.359E-03  3.000E+00  1.630E+03  0.000E+00  0.000E+00
   1   28   51     4     4    3.7819E+02 -1.0065E+02   4.7884E+02  0.000E+00  0.000E+00  0.000E+00  2.01401E+03  7.822E-03  3.000E+00  1.630E+03  0.000E+00  0.000E+00
   1   29   52     4     5    4.7884E+02 -6.2908E+01   5.4175E+02  0.000E+00  0.000E+00  0.000E+00  2.00901E+03  8.687E-03  3.000E+00  1.630E+03  0.000E+00  0.000E+00
   1   30   52     4     6    5.4175E+02 -3.0206E+01   5.7195E+02  0.000E+00  0.000E+00  0.000E+00  2.00401E+03  8.651E-03  3.000E+00  1.350E+03  0.000E+00  0.000E+00
   1   31   52     4     7    5.7195E+02 -3.7325E+01   6.0928E+02  0.000E+00  0.000E+00  0.000E+00  1.99901E+03  9.975E-03  3.000E+00  1.350E+03  0.000E+00  0.000E+00
   1   32   52     4     8    6.0928E+02 -1.3934E+01   6.2321E+02  0.000E+00  0.000E+00  0.000E+00  1.99701E+03  1.040E-02  3.000E+00  1.630E+03  0.000E+00  0.000E+00
   1   33   53     4     9    6.2321E+02 -5.3132E+00   6.2853E+02  0.000E+00  0.000E+00  0.000E+00  1.99101E+03  1.030E-02  3.000E+00  1.909E+03  0.000E+00  0.000E+00
   1   34   54     4    10    6.2853E+02  2.6834E+01   6.0169E+02  0.000E+00  0.000E+00  0.000E+00  1.98701E+03  1.052E-02  3.000E+00  1.909E+03  0.000E+00  0.000E+00
   1   35   55     4    11    6.0169E+02  2.6810E+01   5.7488E+02  0.000E+00  0.000E+00  0.000E+00  1.98201E+03  9.194E-03  3.000E+00  1.630E+03  0.000E+00  0.000E+00
   1   36   55     4    12    5.7488E+02 -6.4685E+01   6.3957E+02  0.000E+00  0.000E+00  0.000E+00  1.97601E+03  8.238E-03  3.000E+00  6.750E+02  0.000E+00  0.000E+00
   1   35   37     5     1    5.5222E+03 -6.7279E+01   5.5895E+03  0.000E+00  0.000E+00  0.000E+00  2.05403E+03  2.692E-02  3.000E+00  9.546E+02  0.000E+00  0.000E+00
   1   34   38     5     2    5.5895E+03 -1.3819E+02   5.7277E+03  0.000E+00  0.000E+00  0.000E+00  2.04603E+03  3.351E-02  3.000E+00  1.909E+03  0.000E+00  0.000E+00
   1   33   39     5     3    5.7277E+03 -2.5432E+02   5.9820E+03  0.000E+00  0.000E+00  0.000E+00  2.03804E+03  4.065E-02  3.000E+00  1.909E+03  0.000E+00  0.000E+00
   1   32   40     5     4    5.9820E+03  9.5191E+01   5.8868E+03  0.000E+00  0.000E+00  0.000E+00  2.03704E+03  4.048E-02  3.000E+00  1.630E+03  0.000E+00  0.000E+00
   1   32   41     5     5    5.8868E+03 -1.5009E+02   6.0369E+03  0.000E+00  0.000E+00  0.000E+00  2.03003E+03  3.397E-02  3.000E+00  1.350E+03  0.000E+00  0.000E+00
   1   32   42     5     6    6.0369E+03 -1.8464E+02   6.2216E+03  0.000E+00  0.000E+00  0.000E+00  2.02504E+03  4.060E-02  3.000E+00  1.350E+03  0.000E+00  0.000E+00
   1   32   43     5     7    6.2216E+03 -7.8318E+01   6.2999E+03  0.000E+00  0.000E+00  0.000E+00  2.02305E+03  4.557E-02  3.000E+00  1.630E+03  0.000E+00  0.000E+00
   1   33   44     5     8    6.2999E+03 -1.6861E+02   6.4685E+03  0.000E+00  0.000E+00  0.000E+00  2.01905E+03  4.617E-02  3.000E+00  1.909E+03  0.000E+00  0.000E+00
   1   34   45     5     9    6.4685E+03 -3.9236E+01   6.5077E+03  0.000E+00  0.000E+00  0.000E+00  2.01604E+03  4.271E-02  3.000E+00  1.630E+03  0.000E+00  0.000E+00
   1   34   46     5    10    6.5077E+03 -1.1754E+02   6.6253E+03  0.000E+00  0.000E+00  0.000E+00  2.01104E+03  3.924E-02  3.000E+00  1.350E+03  0.000E+00  0.000E+00
   1   34   47     5    11    6.6253E+03  3.4303E+00   6.6218E+03  0.000E+00  0.000E+00  0.000E+00  2.00703E+03  3.104E-02  3.000E+00  6.750E+02  0.000E+00  0.000E+00
   1   34   47     6     1    6.6459E+03  1.8818E+00   6.6440E+03  0.000E+00  0.000E+00  0.000E+00  2.00703E+03  2.875E-02  3.000E+00  6.750E+02  0.000E+00  0.000E+00
   1   34   48     6     2    6.6440E+03 -1.4498E+02   6.7890E+03  0.000E+00  0.000E+00  0.000E+00  2.00104E+03  3.769E-02  3.000E+00  1.630E+03  0.000E+00  0.000E+00
   1   35   49     6     3    6.7890E+03 -2.8512E+02   7.0741E+03  0.000E+00  0.000E+00  0.000E+00  1.99404E+03  4.039E-02  3.000E+00  1.630E+03  0.000E+00  0.000E+00
   1   35   50     6     4    7.0741E+03 -2.1584E+02   7.2900E+03  0.000E+00  0.000E+00  0.000E+00  1.99005E+03  4.940E-02  3.000E+00  1.350E+03  0.000E+00  0.000E+00
   1   35   51     6     5    7.2900E+03  1.6732E+01   7.2732E+03  0.000E+00  0.000E+00  0.000E+00  1.98905E+03  4.989E-02  3.000E+00  1.630E+03  0.000E+00  0.000E+00
   1   36   52     6     6    7.2732E+03 -1.3957E+02   7.4128E+03  0.000E+00  0.000E+00  0.000E+00  1.98404E+03  4.440E-02  3.000E+00  1.630E+03  0.000E+00  0.000E+00
   1   36   53     6     7    7.4128E+03 -2.4426E+02   7.6571E+03  0.000E+00  0.000E+00  0.000E+00  1.98006E+03  5.752E-02  3.000E+00  1.630E+03  0.000E+00  0.000E+00
   1   37   54     6     8    7.6571E+03 -5.2672E+01   7.7098E+03  0.000E+00  0.000E+00  0.000E+00  1.98006E+03  6.102E-02  3.000E+00  1.909E+03  0.000E+00  0.000E+00
   1   36   55     6     9    7.7098E+03 -5.4903E+01   7.7647E+03  0.000E+00  0.000E+00  0.000E+00  1.97605E+03  4.655E-02  3.000E+00  9.546E+02  0.000E+00  0.000E+00
   1   36   34     7     1    2.3646E+03 -5.5134E+01   2.4198E+03  0.000E+00  0.000E+00  0.000E+00  2.07701E+03  1.476E-02  3.000E+00  9.546E+02  0.000E+00  0.000E+00
   1   35   35     7     2    2.4198E+03 -1.1771E+02   2.5375E+03  0.000E+00  0.000E+00  0.000E+00  2.06702E+03  1.985E-02  3.000E+00  1.630E+03  0.000E+00  0.000E+00
   1   35   36     7     3    2.5375E+03  9.9220E+00   2.5276E+03  0.000E+00  0.000E+00  0.000E+00  2.06202E+03  1.984E-02  3.000E+00  1.350E+03  0.000E+00  0.000E+00
   1   35   37     7     4    2.5276E+03 -5.5468E+01   2.5830E+03  0.000E+00  0.000E+00  0.000E+00  2.05402E+03  1.523E-02  3.000E+00  6.750E+02  0.000E+00  0.000E+00
   1   52   49     8     1    0.0000E+00 -2.1398E+02   2.1398E+02  0.000E+00  0.000E+00  0.000E+00  2.12100E+03  2.943E-03  3.000E+00  1.909E+03  0.000E+00  0.000E+00
   1   51   48     8     2    2.1398E+02 -2.0918E+02   4.2315E+02  0.000E+00  0.000E+00  0.000E+00  2.11701E+03  9.039E-03  3.000E+00  1.909E+03  0.000E+00  0.000E+00
   1   50   47     8     3    4.2315E+02  9.7776E+01   3.2538E+02  0.000E+00  0.000E+00  0.000E+00  2.11701E+03  7.712E-03  3.000E+00  1.630E+03  9.776E+01  1.695E-02
   1   49   47     8     4    3.2538E+02 -2.2366E+02   5.4904E+02  0.000E+00  0.000E+00  0.000E+00  2.10901E+03  7.918E-03  3.000E+00  1.630E+03  0.000E+00  0.000E+00
   1   48   46     8     5    5.4904E+02  4.6468E-01   5.4858E+02  0.000E+00  0.000E+00  0.000E+00  2.10701E+03  1.195E-02  3.000E+00  1.630E+03  0.000E+00  0.000E+00
   1   47   46     8     6    5.4858E+02  8.4819E+01   4.6376E+02  0.000E+00  0.000E+00  0.000E+00  2.10501E+03  1.076E-02  3.000E+00  1.350E+03  0.000E+00  0.000E+00
   1   46   46     8     7    4.6376E+02  8.1000E+01   3.8276E+02  0.000E+00  0.000E+00  0.000E+00  2.10301E+03  8.554E-03  3.000E+00  1.350E+03  8.112E+01 -1.164E-01
   1   45   46     8     8    3.8276E+02  8.1000E+01   3.0176E+02  0.000E+00  0.000E+00  0.000E+00  2.09901E+03  6.117E-03  3.000E+00  1.350E+03  8.126E+01 -2.574E-01
   1   44   46     8     9    3.0176E+02  8.1000E+01   2.2076E+02  0.000E+00  0.000E+00  0.000E+00  2.09100E+03  4.532E-03  3.000E+00  1.350E+03  8.140E+01 -3.968E-01
   1   43   46     8    10    2.2076E+02  8.1000E+01   1.3976E+02  0.000E+00  0.000E+00  0.000E+00  2.08000E+03  3.627E-03  3.000E+00  1.350E+03  8.153E+01 -5.312E-01
   1   42   46     8    11    1.3976E+02  9.7776E+01   4.1983E+01  0.000E+00  0.000E+00  0.000E+00  2.07200E+03  2.506E-03  3.000E+00  1.630E+03  9.842E+01 -6.408E-01
   1   41   45     8    12    4.1983E+01 -6.7167E+01   1.0915E+02  0.000E+00  0.000E+00  0.000E+00  2.06000E+03  2.316E-03  3.000E+00  1.630E+03  0.000E+00  0.000E+00
   1   40   45     8    13    1.0915E+02  8.1000E+01   2.8151E+01  0.000E+00  0.000E+00  0.000E+00  2.05400E+03  2.228E-03  3.000E+00  1.350E+03  8.171E+01 -7.067E-01
   1   39   45     8    14    2.8151E+01  2.8151E+01   0.0000E+00  0.000E+00  0.000E+00  0.000E+00  2.04600E+03  2.678E-04  3.000E+00  1.350E+03  2.805E+01  9.792E-02
   1   38   45     8    15    0.0000E+00  0.0000E+00   0.0000E+00  0.000E+00  0.000E+00  0.000E+00  2.03500E+03  0.000E+00  3.000E+00  1.350E+03  0.000E+00  0.000E+00
   1   37   45     8    16    0.0000E+00  0.0000E+00   0.0000E+00  0.000E+00  0.000E+00  0.000E+00  2.02700E+03  0.000E+00  3.000E+00  1.630E+03  0.000E+00  0.000E+00
   1   36   46     8    17    0.0000E+00  0.0000E+00   0.0000E+00  0.000E+00  0.000E+00  0.000E+00  2.02100E+03  0.000E+00  3.000E+00  1.630E+03  0.000E+00  0.000E+00
   1   35   46     8    18    0.0000E+00  0.0000E+00   0.0000E+00  0.000E+00  0.000E+00  0.000E+00  2.01400E+03  0.000E+00  3.000E+00  1.630E+03  0.000E+00  0.000E+00
   1   34   47     8    19    0.0000E+00 -2.4087E+01   2.4087E+01  0.000E+00  0.000E+00  0.000E+00  2.00700E+03  7.296E-04  3.000E+00  9.546E+02  0.000E+00  0.000E+00
   1   37   26     9     1    0.0000E+00  0.0000E+00   0.0000E+00  0.000E+00  0.000E+00  0.000E+00  2.14700E+03  0.000E+00  3.000E+00  1.350E+03  0.000E+00  0.000E+00
   1   37   27     9     2    0.0000E+00 -5.6385E+01   5.6385E+01  0.000E+00  0.000E+00  0.000E+00  2.13400E+03  1.148E-03  3.000E+00  1.350E+03  0.000E+00  0.000E+00
   1   37   28     9     3    5.6385E+01 -1.4322E+02   1.9961E+02  0.000E+00  0.000E+00  0.000E+00  2.12500E+03  3.125E-03  3.000E+00  1.630E+03  0.000E+00  0.000E+00
   1   36   29     9     4    1.9961E+02 -6.6901E+00   2.0630E+02  0.000E+00  0.000E+00  0.000E+00  2.11500E+03  4.188E-03  3.000E+00  1.630E+03  0.000E+00  0.000E+00
   1   36   30     9     5    2.0630E+02 -9.7424E+01   3.0372E+02  0.000E+00  0.000E+00  0.000E+00  2.10700E+03  4.618E-03  3.000E+00  1.350E+03  0.000E+00  0.000E+00
   1   36   31     9     6    3.0372E+02 -2.1260E+02   5.1632E+02  0.000E+00  0.000E+00  0.000E+00  2.09801E+03  6.253E-03  3.000E+00  1.350E+03  0.000E+00  0.000E+00
   1   36   32     9     7    5.1632E+02 -1.5971E+02   6.7603E+02  0.000E+00  0.000E+00  0.000E+00  2.09101E+03  8.148E-03  3.000E+00  1.350E+03  0.000E+00  0.000E+00
   1   36   33     9     8    6.7603E+02 -1.4714E+02   8.2316E+02  0.000E+00  0.000E+00  0.000E+00  2.08401E+03  9.348E-03  3.000E+00  1.350E+03  0.000E+00  0.000E+00
   1   36   34     9     9    8.2316E+02 -4.3752E+01   8.6692E+02  0.000E+00  0.000E+00  0.000E+00  2.07701E+03  7.697E-03  3.000E+00  6.750E+02  0.000E+00  0.000E+00
   1   58   37    10     1    0.0000E+00 -1.3153E+02   1.3153E+02  0.000E+00  0.000E+00  0.000E+00  2.15000E+03  3.161E-03  3.000E+00  1.350E+03  0.000E+00  0.000E+00
   1   57   37    10     2    1.3153E+02 -9.3776E+01   2.2530E+02  0.000E+00  0.000E+00  0.000E+00  2.14701E+03  5.146E-03  3.000E+00  1.630E+03  0.000E+00  0.000E+00
   1   56   38    10     3    2.2530E+02 -2.0937E+01   2.4624E+02  0.000E+00  0.000E+00  0.000E+00  2.14301E+03  5.643E-03  3.000E+00  1.630E+03  0.000E+00  0.000E+00
   1   55   38    10     4    2.4624E+02 -1.7845E+02   4.2469E+02  0.000E+00  0.000E+00  0.000E+00  2.13801E+03  6.826E-03  3.000E+00  1.350E+03  0.000E+00  0.000E+00
   1   54   38    10     5    4.2469E+02 -1.2244E+02   5.4714E+02  0.000E+00  0.000E+00  0.000E+00  2.13501E+03  9.292E-03  3.000E+00  1.350E+03  0.000E+00  0.000E+00
   1   53   38    10     6    5.4714E+02 -1.1966E+02   6.6680E+02  0.000E+00  0.000E+00  0.000E+00  2.13201E+03  1.062E-02  3.000E+00  1.350E+03  0.000E+00  0.000E+00
   1   52   38    10     7    6.6680E+02 -1.8181E+02   8.4861E+02  0.000E+00  0.000E+00  0.000E+00  2.12901E+03  1.450E-02  3.000E+00  1.630E+03  0.000E+00  0.000E+00
   1   51   39    10     8    8.4861E+02 -5.9859E+00   8.5460E+02  0.000E+00  0.000E+00  0.000E+00  2.12802E+03  1.555E-02  3.000E+00  1.630E+03  0.000E+00  0.000E+00
   1   50   39    10     9    8.5460E+02 -9.0533E+01   9.4513E+02  0.000E+00  0.000E+00  0.000E+00  2.12501E+03  1.359E-02  3.000E+00  1.630E+03  0.000E+00  0.000E+00
   1   49   38    10    10    9.4513E+02 -1.5777E+02   1.1029E+03  0.000E+00  0.000E+00  0.000E+00  2.12102E+03  1.540E-02  3.000E+00  1.909E+03  0.000E+00  0.000E+00
   1   48   37    10    11    1.1029E+03  1.5619E+01   1.0873E+03  0.000E+00  0.000E+00  0.000E+00  2.11801E+03  1.364E-02  3.000E+00  1.909E+03  0.000E+00  0.000E+00
   1   47   36    10    12    1.0873E+03 -3.4348E+02   1.4308E+03  0.000E+00  0.000E+00  0.000E+00  2.10901E+03  1.414E-02  3.000E+00  1.630E+03  0.000E+00  0.000E+00
   1   46   36    10    13    1.4308E+03 -1.3914E+02   1.5699E+03  0.000E+00  0.000E+00  0.000E+00  2.10602E+03  1.745E-02  3.000E+00  1.350E+03  0.000E+00  0.000E+00
   1   45   36    10    14    1.5699E+03 -1.7440E+02   1.7443E+03  0.000E+00  0.000E+00  0.000E+00  2.10202E+03  1.852E-02  3.000E+00  1.350E+03  0.000E+00  0.000E+00
   1   44   36    10    15    1.7443E+03 -1.0154E+02   1.8458E+03  0.000E+00  0.000E+00  0.000E+00  2.09902E+03  2.035E-02  3.000E+00  1.350E+03  0.000E+00  0.000E+00
   1   43   36    10    16    1.8458E+03 -6.0263E+00   1.8519E+03  0.000E+00  0.000E+00  0.000E+00  2.09602E+03  1.941E-02  3.000E+00  1.630E+03  0.000E+00  0.000E+00
   1   42   37    10    17    1.8519E+03  9.7776E+01   1.7541E+03  0.000E+00  0.000E+00  0.000E+00  2.09002E+03  1.609E-02  3.000E+00  1.630E+03  0.000E+00  0.000E+00
   1   41   37    10    18    1.7541E+03 -2.3584E+02   1.9899E+03  0.000E+00  0.000E+00  0.000E+00  2.08002E+03  1.555E-02  3.000E+00  1.350E+03  0.000E+00  0.000E+00
   1   40   37    10    19    1.9899E+03 -3.3827E+02   2.3282E+03  0.000E+00  0.000E+00  0.000E+00  2.07402E+03  2.130E-02  3.000E+00  1.630E+03  0.000E+00  0.000E+00
   1   39   38    10    20    2.3282E+03 -3.9188E+01   2.3674E+03  0.000E+00  0.000E+00  0.000E+00  2.07102E+03  2.416E-02  3.000E+00  1.630E+03  0.000E+00  0.000E+00
   1   38   38    10    21    2.3674E+03  6.9316E+00   2.3605E+03  0.000E+00  0.000E+00  0.000E+00  2.06702E+03  2.179E-02  3.000E+00  1.630E+03  0.000E+00  0.000E+00
   1   37   37    10    22    2.3605E+03 -3.0775E+02   2.6682E+03  0.000E+00  0.000E+00  0.000E+00  2.06102E+03  2.262E-02  3.000E+00  1.630E+03  0.000E+00  0.000E+00
   1   36   37    10    23    2.6682E+03 -2.1767E+02   2.8859E+03  0.000E+00  0.000E+00  0.000E+00  2.05703E+03  2.525E-02  3.000E+00  1.350E+03  0.000E+00  0.000E+00
   1   35   37    10    24    2.8859E+03 -5.3307E+01   2.9392E+03  0.000E+00  0.000E+00  0.000E+00  2.05402E+03  1.843E-02  3.000E+00  6.750E+02  0.000E+00  0.000E+00
   1   36   55    11     1    8.4042E+03 -4.3301E+01   8.4475E+03  0.000E+00  0.000E+00  0.000E+00  1.97604E+03  3.992E-02  3.000E+00  6.750E+02  0.000E+00  0.000E+00
   1   36   56    11     2    8.4475E+03 -6.9223E+01   8.5167E+03  0.000E+00  0.000E+00  0.000E+00  1.97507E+03  6.732E-02  3.000E+00  1.630E+03  0.000E+00  0.000E+00
   1   37   57    11     3    8.5167E+03 -1.4756E+02   8.6643E+03  0.000E+00  0.000E+00  0.000E+00  1.97307E+03  6.783E-02  3.000E+00  1.630E+03  0.000E+00  0.000E+00
   1   37   58    11     4    8.6643E+03 -1.0246E+02   8.7668E+03  0.000E+00  0.000E+00  0.000E+00  1.97209E+03  8.991E-02  3.000E+00  1.350E+03  0.000E+00  0.000E+00
   1   37   59    11     5    8.7668E+03 -7.4557E+00   8.7742E+03  0.000E+00  0.000E+00  0.000E+00  1.97207E+03  7.331E-02  3.000E+00  1.350E+03  0.000E+00  0.000E+00
   1   37   60    11     6    8.7742E+03 -3.1761E+01   8.8060E+03  0.000E+00  0.000E+00  0.000E+00  1.97006E+03  5.900E-02  3.000E+00  1.630E+03  0.000E+00  0.000E+00
   1   38   61    11     7    8.8060E+03 -1.0191E+02   8.9079E+03  0.000E+00  0.000E+00  0.000E+00  1.96705E+03  5.358E-02  3.000E+00  1.630E+03  0.000E+00  0.000E+00
   1   38   62    11     8    8.9079E+03 -9.9120E+01   9.0070E+03  0.000E+00  0.000E+00  0.000E+00  1.96305E+03  4.898E-02  3.000E+00  6.750E+02  0.000E+00  0.000E+00
   1   51   11    12     1    0.0000E+00 -4.9474E+02   4.9474E+02  0.000E+00  0.000E+00  0.000E+00  2.38700E+03  4.658E-03  3.000E+00  1.909E+03  0.000E+00  0.000E+00
   1   50   12    12     2    4.9474E+02 -6.6708E+01   5.6145E+02  0.000E+00  0.000E+00  0.000E+00  2.37501E+03  7.000E-03  3.000E+00  1.630E+03  0.000E+00  0.000E+00
   1   49   12    12     3    5.6145E+02 -3.9728E+02   9.5873E+02  0.000E+00  0.000E+00  0.000E+00  2.36501E+03  9.100E-03  3.000E+00  1.630E+03  0.000E+00  0.000E+00
   1   48   13    12     4    9.5873E+02 -1.9616E+02   1.1549E+03  0.000E+00  0.000E+00  0.000E+00  2.35601E+03  1.191E-02  3.000E+00  1.630E+03  0.000E+00  0.000E+00
   1   48   14    12     5    1.1549E+03 -1.7112E+02   1.3260E+03  0.000E+00  0.000E+00  0.000E+00  2.35001E+03  1.286E-02  3.000E+00  1.630E+03  0.000E+00  0.000E+00
   1   47   15    12     6    1.3260E+03 -1.7879E+02   1.5048E+03  0.000E+00  0.000E+00  0.000E+00  2.34001E+03  1.419E-02  3.000E+00  1.630E+03  0.000E+00  0.000E+00
   1   47   16    12     7    1.5048E+03 -1.3294E+02   1.6377E+03  0.000E+00  0.000E+00  0.000E+00  2.33502E+03  1.658E-02  3.000E+00  1.630E+03  0.000E+00  0.000E+00
   1   46   17    12     8    1.6377E+03  6.9993E+01   1.5677E+03  0.000E+00  0.000E+00  0.000E+00  2.32902E+03  1.560E-02  3.000E+00  1.630E+03  0.000E+00  0.000E+00
   1   46   18    12     9    1.5677E+03  1.6356E+02   1.4042E+03  0.000E+00  0.000E+00  0.000E+00  2.32101E+03  1.214E-02  3.000E+00  1.350E+03  0.000E+00  0.000E+00
   1   46   19    12    10    1.4042E+03 -1.6623E+02   1.5704E+03  0.000E+00  0.000E+00  0.000E+00  2.30601E+03  1.381E-02  3.000E+00  1.350E+03  0.000E+00  0.000E+00
   1   46   20    12    11    1.5704E+03  9.7776E+01   1.4726E+03  0.000E+00  0.000E+00  0.000E+00  2.30601E+03  1.180E-02  3.000E+00  1.630E+03  9.769E+01  8.653E-02
   1   45   21    12    12    1.4726E+03 -5.7916E+01   1.5306E+03  0.000E+00  0.000E+00  0.000E+00  2.27401E+03  1.038E-02  3.000E+00  1.909E+03  0.000E+00  0.000E+00
   1   44   22    12    13    1.5306E+03 -1.4604E+02   1.6766E+03  0.000E+00  0.000E+00  0.000E+00  2.25001E+03  1.169E-02  3.000E+00  1.909E+03  0.000E+00  0.000E+00
   1   43   23    12    14    1.6766E+03  1.4755E+02   1.5290E+03  0.000E+00  0.000E+00  0.000E+00  2.23101E+03  1.177E-02  3.000E+00  1.909E+03  0.000E+00  0.000E+00
   1   42   24    12    15    1.5290E+03 -8.4251E+01   1.6133E+03  0.000E+00  0.000E+00  0.000E+00  2.20801E+03  1.215E-02  3.000E+00  1.630E+03  0.000E+00  0.000E+00
   1   42   25    12    16    1.6133E+03 -2.3757E+01   1.6371E+03  0.000E+00  0.000E+00  0.000E+00  2.20001E+03  1.336E-02  3.000E+00  1.350E+03  0.000E+00  0.000E+00
   1   42   26    12    17    1.6371E+03  1.1939E+02   1.5177E+03  0.000E+00  0.000E+00  0.000E+00  2.18801E+03  1.162E-02  3.000E+00  1.350E+03  0.000E+00  0.000E+00
   1   42   27    12    18    1.5177E+03 -2.6491E+02   1.7826E+03  0.000E+00  0.000E+00  0.000E+00  2.17001E+03  1.206E-02  3.000E+00  1.350E+03  0.000E+00  0.000E+00
   1   42   28    12    19    1.7826E+03 -9.1539E+01   1.8741E+03  0.000E+00  0.000E+00  0.000E+00  2.15901E+03  1.372E-02  3.000E+00  1.630E+03  0.000E+00  0.000E+00
   1   41   29    12    20    1.8741E+03  1.5344E+02   1.7207E+03  0.000E+00  0.000E+00  0.000E+00  2.14201E+03  1.368E-02  3.000E+00  1.909E+03  0.000E+00  0.000E+00
   1   40   30    12    21    1.7207E+03  5.4133E+01   1.6665E+03  0.000E+00  0.000E+00  0.000E+00  2.12701E+03  1.389E-02  3.000E+00  1.909E+03  0.000E+00  0.000E+00
   1   39   31    12    22    1.6665E+03  1.1455E+02   1.5520E+03  0.000E+00  0.000E+00  0.000E+00  2.11501E+03  1.395E-02  3.000E+00  1.909E+03  1.148E+02 -2.662E-01
   1   38   32    12    23    1.5520E+03  1.1455E+02   1.4374E+03  0.000E+00  0.000E+00  0.000E+00  2.10301E+03  1.303E-02  3.000E+00  1.909E+03  1.148E+02 -2.818E-01
   1   37   33    12    24    1.4374E+03 -1.5813E+00   1.4390E+03  0.000E+00  0.000E+00  0.000E+00  2.08901E+03  1.274E-02  3.000E+00  1.909E+03  0.000E+00  0.000E+00
   1   36   34    12    25    1.4390E+03 -5.8710E+01   1.4977E+03  0.000E+00  0.000E+00  0.000E+00  2.07701E+03  1.101E-02  3.000E+00  9.546E+02  0.000E+00  0.000E+00
   1   38   62    13     1    9.1914E+03 -1.0659E+02   9.2980E+03  0.000E+00  0.000E+00  0.000E+00  1.96304E+03  3.792E-02  3.000E+00  6.750E+02  0.000E+00  0.000E+00
   1   38   63    13     2    9.2980E+03 -1.0698E+01   9.3087E+03  0.000E+00  0.000E+00  0.000E+00  1.96548E+03  2.479E+00  3.000E+00  1.350E+03  0.000E+00  0.000E+00
   1   38   64    13     3    9.3087E+03  1.5773E+01   9.2929E+03  0.000E+00  0.000E+00  0.000E+00  1.96548E+03  2.478E+00  3.000E+00  1.350E+03  0.000E+00  0.000E+00
   1   38   65    13     4    9.2929E+03 -5.0516E+01   9.3434E+03  0.000E+00  0.000E+00  0.000E+00  1.96307E+03  6.731E-02  3.000E+00  1.350E+03  0.000E+00  0.000E+00
   1   38   66    13     5    9.3434E+03 -8.5123E+01   9.4286E+03  0.000E+00  0.000E+00  0.000E+00  1.96006E+03  5.800E-02  3.000E+00  1.350E+03  0.000E+00  0.000E+00
   1   38   67    13     6    9.4286E+03 -6.0970E+01   9.4895E+03  0.000E+00  0.000E+00  0.000E+00  1.95806E+03  5.574E-02  3.000E+00  1.630E+03  0.000E+00  0.000E+00
   1   39   68    13     7    9.4895E+03 -3.3297E+01   9.5228E+03  0.000E+00  0.000E+00  0.000E+00  1.95305E+03  5.023E-02  3.000E+00  1.630E+03  0.000E+00  0.000E+00
   1   39   69    13     8    9.5228E+03 -8.8161E+01   9.6110E+03  0.000E+00  0.000E+00  0.000E+00  1.94805E+03  5.304E-02  3.000E+00  1.350E+03  0.000E+00  0.000E+00
   1   39   70    13     9    9.6110E+03  1.7040E+01   9.5939E+03  0.000E+00  0.000E+00  0.000E+00  1.94605E+03  4.522E-02  3.000E+00  6.750E+02  0.000E+00  0.000E+00
   1   46   61    14     1    0.0000E+00 -2.5558E+01   2.5558E+01  0.000E+00  0.000E+00  0.000E+00  2.01700E+03  8.145E-04  3.000E+00  1.350E+03  0.000E+00  0.000E+00
   1   45   61    14     2    2.5558E+01  2.5558E+01   0.0000E+00  0.000E+00  0.000E+00  0.000E+00  2.01000E+03  2.978E-04  3.000E+00  1.350E+03  0.000E+00  0.000E+00
   1   44   61    14     3    0.0000E+00  0.0000E+00   0.0000E+00  0.000E+00  0.000E+00  0.000E+00  2.00600E+03  0.000E+00  3.000E+00  1.350E+03  0.000E+00  0.000E+00
   1   43   61    14     4    0.0000E+00  0.0000E+00   0.0000E+00  0.000E+00  0.000E+00  0.000E+00  1.99900E+03  0.000E+00  3.000E+00  1.350E+03  0.000E+00  0.000E+00
   1   42   61    14     5    0.0000E+00  0.0000E+00   0.0000E+00  0.000E+00  0.000E+00  0.000E+00  1.99300E+03  0.000E+00  3.000E+00  1.350E+03  0.000E+00  0.000E+00
   1   41   61    14     6    0.0000E+00  0.0000E+00   0.0000E+00  0.000E+00  0.000E+00  0.000E+00  1.98500E+03  0.000E+00  3.000E+00  1.350E+03  0.000E+00  0.000E+00
   1   40   61    14     7    0.0000E+00 -3.3941E+01   3.3941E+01  0.000E+00  0.000E+00  0.000E+00  1.97800E+03  1.011E-03  3.000E+00  1.350E+03  0.000E+00  0.000E+00
   1   39   61    14     8    3.3941E+01  3.3941E+01   0.0000E+00  0.000E+00  0.000E+00  0.000E+00  1.97300E+03  3.404E-04  3.000E+00  1.630E+03  0.000E+00  0.000E+00
   1   38   62    14     9    0.0000E+00 -1.8440E+02   1.8440E+02  0.000E+00  0.000E+00  0.000E+00  1.96300E+03  2.654E-03  3.000E+00  9.546E+02  0.000E+00  0.000E+00
   1   39   70    15     1    1.0280E+04  1.3018E+01   1.0267E+04  0.000E+00  0.000E+00  0.000E+00  1.94604E+03  3.926E-02  3.000E+00  6.750E+02  0.000E+00  0.000E+00
   1   39   71    15     2    1.0267E+04 -1.1997E+02   1.0387E+04  0.000E+00  0.000E+00  0.000E+00  1.94206E+03  6.499E-02  3.000E+00  1.630E+03  0.000E+00  0.000E+00
   1   40   72    15     3    1.0387E+04 -3.9055E+01   1.0426E+04  0.000E+00  0.000E+00  0.000E+00  1.94107E+03  6.981E-02  3.000E+00  1.630E+03  0.000E+00  0.000E+00
   1   40   73    15     4    1.0426E+04 -5.6348E+01   1.0483E+04  0.000E+00  0.000E+00  0.000E+00  1.93806E+03  6.188E-02  3.000E+00  1.350E+03  0.000E+00  0.000E+00
   1   40   74    15     5    1.0483E+04 -3.4227E+01   1.0517E+04  0.000E+00  0.000E+00  0.000E+00  1.93607E+03  6.633E-02  3.000E+00  1.350E+03  0.000E+00  0.000E+00
   1   40   75    15     6    1.0517E+04 -2.3880E+00   1.0519E+04  0.000E+00  0.000E+00  0.000E+00  1.93406E+03  5.880E-02  3.000E+00  6.750E+02  0.000E+00  0.000E+00
   1   40   75    16     1    1.1477E+04 -6.1914E+00   1.1483E+04  0.000E+00  0.000E+00  0.000E+00  1.93405E+03  5.316E-02  3.000E+00  6.750E+02  0.000E+00  0.000E+00
   1   40   76    16     2    1.1483E+04  0.0000E+00   1.1483E+04  0.000E+00  0.000E+00  0.000E+00  1.93308E+03  7.630E-02  3.000E+00  0.000E+00  0.000E+00  0.000E+00
   1   55   73    17     1    0.0000E+00  0.0000E+00   0.0000E+00  0.000E+00  0.000E+00  0.000E+00  2.04100E+03  0.000E+00  3.000E+00  1.350E+03  0.000E+00  0.000E+00
   1   54   73    17     2    0.0000E+00  0.0000E+00   0.0000E+00  0.000E+00  0.000E+00  0.000E+00  2.02900E+03  0.000E+00  3.000E+00  1.350E+03  0.000E+00  0.000E+00
   1   53   73    17     3    0.0000E+00  0.0000E+00   0.0000E+00  0.000E+00  0.000E+00  0.000E+00  2.01700E+03  0.000E+00  3.000E+00  1.350E+03  0.000E+00  0.000E+00
   1   52   73    17     4    0.0000E+00 -6.0497E+01   6.0497E+01  0.000E+00  0.000E+00  0.000E+00  2.01000E+03  1.319E-03  3.000E+00  1.630E+03  0.000E+00  0.000E+00
   1   51   72    17     5    6.0497E+01 -2.4814E+02   3.0864E+02  0.000E+00  0.000E+00  0.000E+00  1.99800E+03  4.025E-03  3.000E+00  1.630E+03  0.000E+00  0.000E+00
   1   50   72    17     6    3.0864E+02 -2.0887E+01   3.2952E+02  0.000E+00  0.000E+00  0.000E+00  1.99301E+03  5.864E-03  3.000E+00  1.350E+03  0.000E+00  0.000E+00
   1   49   72    17     7    3.2952E+02 -8.5649E+01   4.1517E+02  0.000E+00  0.000E+00  0.000E+00  1.98601E+03  6.143E-03  3.000E+00  1.350E+03  0.000E+00  0.000E+00
   1   48   72    17     8    4.1517E+02 -1.3057E+02   5.4574E+02  0.000E+00  0.000E+00  0.000E+00  1.97901E+03  7.158E-03  3.000E+00  1.350E+03  0.000E+00  0.000E+00
   1   47   72    17     9    5.4574E+02 -1.9675E+02   7.4249E+02  0.000E+00  0.000E+00  0.000E+00  1.97201E+03  8.727E-03  3.000E+00  1.350E+03  0.000E+00  0.000E+00
   1   46   72    17    10    7.4249E+02 -2.4281E+01   7.6677E+02  0.000E+00  0.000E+00  0.000E+00  1.96601E+03  9.830E-03  3.000E+00  1.350E+03  0.000E+00  0.000E+00
   1   45   72    17    11    7.6677E+02 -1.0649E+01   7.7742E+02  0.000E+00  0.000E+00  0.000E+00  1.96001E+03  1.007E-02  3.000E+00  1.630E+03  0.000E+00  0.000E+00
   1   44   73    17    12    7.7742E+02 -2.6802E+01   8.0422E+02  0.000E+00  0.000E+00  0.000E+00  1.95201E+03  1.044E-02  3.000E+00  1.630E+03  0.000E+00  0.000E+00
   1   43   73    17    13    8.0422E+02 -4.6490E+01   8.5071E+02  0.000E+00  0.000E+00  0.000E+00  1.94701E+03  1.173E-02  3.000E+00  1.350E+03  0.000E+00  0.000E+00
   1   42   73    17    14    8.5071E+02 -1.1717E+01   8.6243E+02  0.000E+00  0.000E+00  0.000E+00  1.94401E+03  1.223E-02  3.000E+00  1.630E+03  0.000E+00  0.000E+00
   1   41   74    17    15    8.6243E+02 -4.8136E+01   9.1056E+02  0.000E+00  0.000E+00  0.000E+00  1.93801E+03  1.269E-02  3.000E+00  1.909E+03  0.000E+00  0.000E+00
   1   40   75    17    16    9.1056E+02 -4.7005E+01   9.5757E+02  0.000E+00  0.000E+00  0.000E+00  1.93401E+03  1.309E-02  3.000E+00  9.546E+02  0.000E+00  0.000E+00
   1   37   55    18     1    0.0000E+00  0.0000E+00   0.0000E+00  0.000E+00  0.000E+00  0.000E+00  2.00700E+03  0.000E+00  3.000E+00  1.630E+03  0.000E+00  0.000E+00
   1   36   54    19     1    0.0000E+00  0.0000E+00   0.0000E+00  0.000E+00  0.000E+00  0.000E+00  2.00700E+03  0.000E+00  3.000E+00  1.630E+03  0.000E+00  0.000E+00



1
  VOLUMETRIC BUDGET FOR UNSATURATED ZONE BENEATH STREAMS AT END OF TIME STEP    31 STRESS PERIOD   4
  ------------------------------------------------------------------------------------------------

    CUMULATIVE VOLUMES             L**3    RATES FOR THIS TIME STEP         L**3/T
    ------------------                     ------------------------


          STREAM LOSS =       103122.5234            STREAM LOSS =         1151.1315
    CHANGE IN STORAGE =          156.6902      CHANGE IN STORAGE =           -4.0950
       RECHARGE TO GW =       102965.9844         RECHARGE TO GW =         1155.2264

             TOTAL IN =       103122.5234               TOTAL IN =         1155.2264

            TOTAL OUT =       103122.6719              TOTAL OUT =         1155.2264

             IN - OUT =           -0.1484               IN - OUT =            0.0000

  PERCENT DISCREPANCY =           -0.00      PERCENT DISCREPANCY =             0.00



 ***WARNING***NUZTOP IS 3 AND ALL LAYERS  IN ROW           39  AND COLUMN           76  ARE INACTIVE.
 UNSATURATED FLOW WILL NOT BE ADDED TO ANY LAYER-- SOME WATER MAY FLOW PAST LOWEST LAYER
 ***WARNING***NUZTOP IS 3 AND ALL LAYERS  IN ROW           40  AND COLUMN           76  ARE INACTIVE.
 UNSATURATED FLOW WILL NOT BE ADDED TO ANY LAYER-- SOME WATER MAY FLOW PAST LOWEST LAYER


UNSATURATED ZONE PACKAGE VOLUMETRIC BUDGET FOR  TIME STEP    31 STRESS PERIOD    4
  ------------------------------------------------------------------------------



     CUMULATIVE VOLUMES      L**3       RATES FOR THIS TIME STEP      L**3/T
     ------------------                 ------------------------

           IN:                                      IN:
           ---                                      ---
        INFILTRATION =       26653.0419          INFILTRATION =       0.0000E+00

          OUT:                                     OUT:
          ----                                     ----
              UZF ET =      657761.0413                UZF ET =           0.0000
        UZF RECHARGE =     1774394.3944          UZF RECHARGE =       14695.8279

            IN - OUT =    -2405502.3937              IN - OUT =      -14695.8279

          STORAGE:                                 STORAGE:
          --------                                 --------
      STORAGE CHANGE =    -2403526.4542        STORAGE CHANGE =      -14695.7056

 PERCENT DISCREPANCY IS DIFFERENCE BETWEEN IN-OUT MINUS CHANGE IN STORAGE
 DIVIDED BY THE AVERAGE OF IN AND OUT TIMES 100

 PERCENT DISCREPANCY =          -0.02     PERCENT DISCREPANCY =          -0.00






1
  VOLUMETRIC BUDGET FOR AGRICULTURAL FIELDS AT  END OF TIME STEP   31, STRESS PERIOD   4
  ------------------------------------------------------------------------------

     CUMULATIVE VOLUMES      L**3       RATES FOR THIS TIME STEP      L**3/T
     ------------------                 ------------------------

           IN:                                      IN:
           ---                                      ---
               AG WELLS  =           0.0000                 AG WELLS  =          -0.0000
      DIVERSION SEGMENTS =           0.0000        DIVERSION SEGMENTS =           0.0000
       IRRIGATION PONDS  =           0.0000         IRRIGATION PONDS  =           0.0000
           GW IRRIGATION =           0.0000             GW IRRIGATION =           0.0000
           SW IRRIGATION =           0.0000             SW IRRIGATION =           0.0000
        SYSTEM LOSSES GW =           0.0000          SYSTEM LOSSES GW =           0.0000
        SYSTEM LOSSES SW =           0.0000          SYSTEM LOSSES SW =          -0.0000

                TOTAL IN =           0.0000                  TOTAL IN =           0.0000

          OUT:                                     OUT:
          ----                                     ----
               AG WELLS  =           0.0000                 AG WELLS  =           0.0000
      DIVERSION SEGMENTS =           0.0000        DIVERSION SEGMENTS =           0.0000
       IRRIGATION PONDS  =           0.0000         IRRIGATION PONDS  =           0.0000
           GW IRRIGATION =           0.0000             GW IRRIGATION =           0.0000
           SW IRRIGATION =           0.0000             SW IRRIGATION =           0.0000
        SYSTEM LOSSES GW =           0.0000          SYSTEM LOSSES GW =           0.0000
        SYSTEM LOSSES SW =           0.0000          SYSTEM LOSSES SW =           0.0000

               TOTAL OUT =           0.0000                 TOTAL OUT =           0.0000

                IN - OUT =           0.0000                  IN - OUT =           0.0000

     PERCENT DISCREPANCY =           0.00         PERCENT DISCREPANCY =           0.00



1
  VOLUMETRIC BUDGET FOR ENTIRE MODEL AT END OF TIME STEP   31, STRESS PERIOD   4
  ------------------------------------------------------------------------------

     CUMULATIVE VOLUMES      L**3       RATES FOR THIS TIME STEP      L**3/T
     ------------------                 ------------------------

           IN:                                      IN:
           ---                                      ---
             STORAGE     =      212154.6719               STORAGE     =        3966.7026
       CONSTANT HEAD     =           0.9583         CONSTANT HEAD     =           0.1591
      STREAM LEAKAGE     =      251602.6094        STREAM LEAKAGE     =        2428.5544
        UZF RECHARGE     =     1774408.7500          UZF RECHARGE     =       14695.8379
               GW ET     =           0.0000                 GW ET     =           0.0000
     SURFACE LEAKAGE     =           0.0000       SURFACE LEAKAGE     =           0.0000
           AG WELLS      =           0.0000             AG WELLS      =           0.0000

                TOTAL IN =     2238167.0000                  TOTAL IN =       21091.2539

          OUT:                                     OUT:
          ----                                     ----
             STORAGE     =      800470.0625               STORAGE     =        6956.0859
       CONSTANT HEAD     =        3336.0713         CONSTANT HEAD     =          35.5643
      STREAM LEAKAGE     =     1145371.2500        STREAM LEAKAGE     =       13902.9873
        UZF RECHARGE     =           0.0000          UZF RECHARGE     =           0.0000
               GW ET     =      279906.8438                 GW ET     =          35.1370
     SURFACE LEAKAGE     =        8949.6777       SURFACE LEAKAGE     =         162.5382
           AG WELLS      =           0.0000             AG WELLS      =           0.0000

               TOTAL OUT =     2238034.0000                 TOTAL OUT =       21092.3125

                IN - OUT =         133.0000                  IN - OUT =          -1.0586

     PERCENT DISCREPANCY =           0.01         PERCENT DISCREPANCY =          -0.01






         TIME SUMMARY AT END OF TIME STEP   31 IN STRESS PERIOD    4
                    SECONDS     MINUTES      HOURS       DAYS        YEARS
                    -----------------------------------------------------------
   TIME STEP LENGTH  86400.      1440.0      24.000      1.0000     2.73785E-03
 STRESS PERIOD TIME 2.67840E+06  44640.      744.00      31.000     8.48734E-02
         TOTAL TIME 8.03520E+06 1.33920E+05  2232.0      93.000     0.25462    
1
1
                            STRESS PERIOD NO.    5, LENGTH =   31.00000    
                            -----------------------------------------------

                              NUMBER OF TIME STEPS =    31

                               MULTIPLIER FOR DELT =     1.000

                            INITIAL TIME STEP SIZE =   1.000000    
 USING INFILTRATION RATE FROM PREVIOUS STRESS 
 PERIOD.CURRENT PERIOD IS:            5

USING ET RATE FROM PREVIOUS STRESS PERIOD. CURRENT PERIOD IS:       5

 USING ET EXTINCTION DEPTH FROM PREVIOUS STRESS PERIOD. CURRENT PERIOD IS:       5

 USING EXTINCTION WATER CONTENT FROM PREVIOUS STRESS PERIOD. CURRENT PERIOD IS:       5

 PROCESSING AG STRESS PERIOD DATA

 READING AG STRESS PERIOD DATA

 READING IRRIGATION POND

 END PROCESSING AG STRESS PERIOD DATA OPTIONS
                                                   Max.-Head-Change                         Max.-Flux-Residual
  Residual-Control   Outer-Iter.   Inner-Iter.     Column Row Layer    Maximum-Head-Change  Column Row Layer    Maximum-Flux-Residual          L2-NORM 
          0                 1           4            62   31     1      -0.3307792871E+00      39   59    1         0.4572860598E+02      0.2789213462E+03
          0                 2           4            56    7     1       0.3019342145E+00      56    7    1         0.9627464094E+01      0.5062443733E+02
          0                 3           2            57    7     1       0.4047574015E-02      64   38    1        -0.2901901373E+01      0.1707696199E+02
          0                 4           2             2   58     1       0.1678420396E-02      64   38    1        -0.2022634754E+01      0.7031141338E+01
          0                 5           1             2   58     1       0.9905994248E-03      64   38    1        -0.7798900802E+00      0.2935880638E+01

    ------------------------------------------------
       NWT REQUIRED            5 OUTER ITERATIONS 
       AND A TOTAL OF         13 INNER ITERATIONS.
    ------------------------------------------------

 OUTPUT CONTROL FOR STRESS PERIOD    5   TIME STEP    1
    PRINT BUDGET
    SAVE BUDGET
    SAVE HEAD FOR ALL LAYERS



 STREAM LISTING     PERIOD      5   STEP        1

 LAYER ROW COL. STREAM  RCH.   FLOW INTO    STREAM     FLOW OUT OF   OVRLND.    DIRECT     STREAM      STREAM      STREAM     STREAM  STREAMBED   FLOW TO   CHNG. UNSAT. 
                SEG.NO.  NO.   STRM. RCH.    LOSS       STRM. RCH.   RUNOFF     PRECIP       ET         HEAD        DEPTH      WIDTH  CONDCTNC.   WAT. TAB.

   1   18   62     1     1    0.0000E+00 -1.3402E+01   1.4272E+01  8.702E-01  0.000E+00  0.000E+00  2.07300E+03  5.768E-04  3.000E+00  1.909E+03  0.000E+00  0.000E+00
   1   19   63     1     2    1.4272E+01 -5.8717E+01   7.3859E+01  8.702E-01  0.000E+00  0.000E+00  2.06300E+03  1.729E-03  3.000E+00  1.909E+03  0.000E+00  0.000E+00
   1   20   64     1     3    7.3859E+01 -8.6960E+01   1.6169E+02  8.702E-01  0.000E+00  0.000E+00  2.05400E+03  3.413E-03  3.000E+00  1.630E+03  0.000E+00  0.000E+00
   1   21   64     1     4    1.6169E+02 -9.2030E+01   2.5459E+02  8.702E-01  0.000E+00  0.000E+00  2.05101E+03  5.912E-03  3.000E+00  1.630E+03  0.000E+00  0.000E+00
   1   22   65     1     5    2.5459E+02 -1.5583E+01   2.7104E+02  8.702E-01  0.000E+00  0.000E+00  2.04801E+03  5.792E-03  3.000E+00  9.546E+02  0.000E+00  0.000E+00
   1   20   66     2     1    0.0000E+00 -5.3140E+01   5.3140E+01  0.000E+00  0.000E+00  0.000E+00  2.05300E+03  1.803E-03  3.000E+00  1.909E+03  0.000E+00  0.000E+00
   1   21   65     2     2    5.3140E+01 -2.6780E+00   5.5818E+01  0.000E+00  0.000E+00  0.000E+00  2.05100E+03  2.797E-03  3.000E+00  1.630E+03  0.000E+00  0.000E+00
   1   22   65     2     3    5.5818E+01 -1.3438E+01   6.9255E+01  0.000E+00  0.000E+00  0.000E+00  2.04800E+03  2.208E-03  3.000E+00  6.750E+02  0.000E+00  0.000E+00
   1   22   65     3     1    3.4030E+02 -1.0775E+01   3.5107E+02  0.000E+00  0.000E+00  0.000E+00  2.04801E+03  6.153E-03  3.000E+00  6.750E+02  0.000E+00  0.000E+00
   1   23   65     3     2    3.5107E+02 -1.0094E+02   4.5201E+02  0.000E+00  0.000E+00  0.000E+00  2.04501E+03  1.080E-02  3.000E+00  1.630E+03  0.000E+00  0.000E+00
   1   24   66     3     3    4.5201E+02 -2.9554E+01   4.8157E+02  0.000E+00  0.000E+00  0.000E+00  2.04541E+03  4.117E-01  3.000E+00  1.909E+03  0.000E+00  0.000E+00
   1   25   67     3     4    4.8157E+02  6.0916E+00   4.7547E+02  0.000E+00  0.000E+00  0.000E+00  2.04501E+03  1.258E-02  3.000E+00  1.909E+03  0.000E+00  0.000E+00
   1   26   68     3     5    4.7547E+02 -1.8083E+01   4.9356E+02  0.000E+00  0.000E+00  0.000E+00  2.04201E+03  1.109E-02  3.000E+00  1.630E+03  0.000E+00  0.000E+00
   1   27   68     3     6    4.9356E+02  8.6219E+01   4.0734E+02  0.000E+00  0.000E+00  0.000E+00  2.04101E+03  9.400E-03  3.000E+00  1.630E+03  0.000E+00  0.000E+00
   1   28   69     3     7    4.0734E+02  9.7776E+01   3.0956E+02  0.000E+00  0.000E+00  0.000E+00  2.03601E+03  6.658E-03  3.000E+00  1.630E+03  9.884E+01 -1.062E+00
   1   29   69     3     8    3.0956E+02  6.0790E+01   2.4877E+02  0.000E+00  0.000E+00  0.000E+00  2.02901E+03  5.288E-03  3.000E+00  1.350E+03  0.000E+00  0.000E+00
   1   30   69     3     9    2.4877E+02  1.1357E+01   2.3742E+02  0.000E+00  0.000E+00  0.000E+00  2.02300E+03  4.671E-03  3.000E+00  1.630E+03  0.000E+00  0.000E+00
   1   31   70     3    10    2.3742E+02 -1.1665E+02   3.5407E+02  0.000E+00  0.000E+00  0.000E+00  2.01101E+03  5.253E-03  3.000E+00  1.630E+03  0.000E+00  0.000E+00
   1   32   70     3    11    3.5407E+02 -2.1616E+02   5.7023E+02  0.000E+00  0.000E+00  0.000E+00  2.00501E+03  8.276E-03  3.000E+00  1.350E+03  0.000E+00  0.000E+00
   1   33   70     3    12    5.7023E+02  5.6156E+00   5.6461E+02  0.000E+00  0.000E+00  0.000E+00  2.00301E+03  7.640E-03  3.000E+00  1.630E+03  0.000E+00  0.000E+00
   1   34   69     3    13    5.6461E+02 -3.7590E+01   6.0220E+02  0.000E+00  0.000E+00  0.000E+00  1.98601E+03  6.773E-03  3.000E+00  1.630E+03  0.000E+00  0.000E+00
   1   35   69     3    14    6.0220E+02 -5.1116E+01   6.5332E+02  0.000E+00  0.000E+00  0.000E+00  1.97301E+03  7.671E-03  3.000E+00  1.350E+03  0.000E+00  0.000E+00
   1   36   69     3    15    6.5332E+02 -4.2373E+00   6.5755E+02  0.000E+00  0.000E+00  0.000E+00  1.96701E+03  8.627E-03  3.000E+00  1.350E+03  0.000E+00  0.000E+00
   1   37   69     3    16    6.5755E+02  2.6598E+00   6.5489E+02  0.000E+00  0.000E+00  0.000E+00  1.95901E+03  8.633E-03  3.000E+00  1.350E+03  0.000E+00  0.000E+00
   1   38   69     3    17    6.5489E+02  3.5208E+00   6.5137E+02  0.000E+00  0.000E+00  0.000E+00  1.95301E+03  9.314E-03  3.000E+00  1.630E+03  0.000E+00  0.000E+00
   1   39   70     3    18    6.5137E+02 -1.0537E+01   6.6191E+02  0.000E+00  0.000E+00  0.000E+00  1.94601E+03  8.368E-03  3.000E+00  9.546E+02  0.000E+00  0.000E+00
   1   25   49     4     1    0.0000E+00 -1.7555E+02   1.7555E+02  0.000E+00  0.000E+00  0.000E+00  2.03500E+03  2.536E-03  3.000E+00  1.909E+03  0.000E+00  0.000E+00
   1   26   50     4     2    1.7555E+02 -1.0794E+02   2.8349E+02  0.000E+00  0.000E+00  0.000E+00  2.02600E+03  4.898E-03  3.000E+00  1.909E+03  0.000E+00  0.000E+00
   1   27   51     4     3    2.8349E+02 -9.0455E+01   3.7394E+02  0.000E+00  0.000E+00  0.000E+00  2.01901E+03  6.317E-03  3.000E+00  1.630E+03  0.000E+00  0.000E+00
   1   28   51     4     4    3.7394E+02 -9.9688E+01   4.7363E+02  0.000E+00  0.000E+00  0.000E+00  2.01401E+03  7.771E-03  3.000E+00  1.630E+03  0.000E+00  0.000E+00
   1   29   52     4     5    4.7363E+02 -6.1636E+01   5.3527E+02  0.000E+00  0.000E+00  0.000E+00  2.00901E+03  8.627E-03  3.000E+00  1.630E+03  0.000E+00  0.000E+00
   1   30   52     4     6    5.3527E+02 -2.8916E+01   5.6418E+02  0.000E+00  0.000E+00  0.000E+00  2.00401E+03  8.585E-03  3.000E+00  1.350E+03  0.000E+00  0.000E+00
   1   31   52     4     7    5.6418E+02 -3.6017E+01   6.0020E+02  0.000E+00  0.000E+00  0.000E+00  1.99901E+03  9.889E-03  3.000E+00  1.350E+03  0.000E+00  0.000E+00
   1   32   52     4     8    6.0020E+02 -1.2982E+01   6.1318E+02  0.000E+00  0.000E+00  0.000E+00  1.99701E+03  1.030E-02  3.000E+00  1.630E+03  0.000E+00  0.000E+00
   1   33   53     4     9    6.1318E+02 -4.0805E+00   6.1726E+02  0.000E+00  0.000E+00  0.000E+00  1.99101E+03  1.019E-02  3.000E+00  1.909E+03  0.000E+00  0.000E+00
   1   34   54     4    10    6.1726E+02  2.6722E+01   5.9054E+02  0.000E+00  0.000E+00  0.000E+00  1.98701E+03  1.040E-02  3.000E+00  1.909E+03  0.000E+00  0.000E+00
   1   35   55     4    11    5.9054E+02  2.7483E+01   5.6306E+02  0.000E+00  0.000E+00  0.000E+00  1.98201E+03  9.086E-03  3.000E+00  1.630E+03  0.000E+00  0.000E+00
   1   36   55     4    12    5.6306E+02 -6.4364E+01   6.2742E+02  0.000E+00  0.000E+00  0.000E+00  1.97601E+03  8.140E-03  3.000E+00  6.750E+02  0.000E+00  0.000E+00
   1   35   37     5     1    5.5050E+03 -6.7116E+01   5.5721E+03  0.000E+00  0.000E+00  0.000E+00  2.05403E+03  2.687E-02  3.000E+00  9.546E+02  0.000E+00  0.000E+00
   1   34   38     5     2    5.5721E+03 -1.3797E+02   5.7101E+03  0.000E+00  0.000E+00  0.000E+00  2.04603E+03  3.345E-02  3.000E+00  1.909E+03  0.000E+00  0.000E+00
   1   33   39     5     3    5.7101E+03 -2.5388E+02   5.9640E+03  0.000E+00  0.000E+00  0.000E+00  2.03804E+03  4.057E-02  3.000E+00  1.909E+03  0.000E+00  0.000E+00
   1   32   40     5     4    5.9640E+03  9.5522E+01   5.8685E+03  0.000E+00  0.000E+00  0.000E+00  2.03704E+03  4.041E-02  3.000E+00  1.630E+03  0.000E+00  0.000E+00
   1   32   41     5     5    5.8685E+03 -1.4938E+02   6.0178E+03  0.000E+00  0.000E+00  0.000E+00  2.03003E+03  3.391E-02  3.000E+00  1.350E+03  0.000E+00  0.000E+00
   1   32   42     5     6    6.0178E+03 -1.8392E+02   6.2018E+03  0.000E+00  0.000E+00  0.000E+00  2.02504E+03  4.053E-02  3.000E+00  1.350E+03  0.000E+00  0.000E+00
   1   32   43     5     7    6.2018E+03 -7.6848E+01   6.2786E+03  0.000E+00  0.000E+00  0.000E+00  2.02305E+03  4.548E-02  3.000E+00  1.630E+03  0.000E+00  0.000E+00
   1   33   44     5     8    6.2786E+03 -1.6733E+02   6.4459E+03  0.000E+00  0.000E+00  0.000E+00  2.01905E+03  4.607E-02  3.000E+00  1.909E+03  0.000E+00  0.000E+00
   1   34   45     5     9    6.4459E+03 -3.8371E+01   6.4843E+03  0.000E+00  0.000E+00  0.000E+00  2.01604E+03  4.262E-02  3.000E+00  1.630E+03  0.000E+00  0.000E+00
   1   34   46     5    10    6.4843E+03 -1.1670E+02   6.6010E+03  0.000E+00  0.000E+00  0.000E+00  2.01104E+03  3.916E-02  3.000E+00  1.350E+03  0.000E+00  0.000E+00
   1   34   47     5    11    6.6010E+03  3.6926E+00   6.5973E+03  0.000E+00  0.000E+00  0.000E+00  2.00703E+03  3.098E-02  3.000E+00  6.750E+02  0.000E+00  0.000E+00
   1   34   47     6     1    6.6210E+03  2.1464E+00   6.6188E+03  0.000E+00  0.000E+00  0.000E+00  2.00703E+03  2.869E-02  3.000E+00  6.750E+02  0.000E+00  0.000E+00
   1   34   48     6     2    6.6188E+03 -1.4370E+02   6.7625E+03  0.000E+00  0.000E+00  0.000E+00  2.00104E+03  3.761E-02  3.000E+00  1.630E+03  0.000E+00  0.000E+00
   1   35   49     6     3    6.7625E+03 -2.8436E+02   7.0469E+03  0.000E+00  0.000E+00  0.000E+00  1.99404E+03  4.029E-02  3.000E+00  1.630E+03  0.000E+00  0.000E+00
   1   35   50     6     4    7.0469E+03 -2.1446E+02   7.2614E+03  0.000E+00  0.000E+00  0.000E+00  1.99005E+03  4.928E-02  3.000E+00  1.350E+03  0.000E+00  0.000E+00
   1   35   51     6     5    7.2614E+03  1.8015E+01   7.2433E+03  0.000E+00  0.000E+00  0.000E+00  1.98905E+03  4.977E-02  3.000E+00  1.630E+03  0.000E+00  0.000E+00
   1   36   52     6     6    7.2433E+03 -1.3884E+02   7.3822E+03  0.000E+00  0.000E+00  0.000E+00  1.98404E+03  4.429E-02  3.000E+00  1.630E+03  0.000E+00  0.000E+00
   1   36   53     6     7    7.3822E+03 -2.4317E+02   7.6253E+03  0.000E+00  0.000E+00  0.000E+00  1.98006E+03  5.737E-02  3.000E+00  1.630E+03  0.000E+00  0.000E+00
   1   37   54     6     8    7.6253E+03 -5.2311E+01   7.6777E+03  0.000E+00  0.000E+00  0.000E+00  1.98006E+03  6.087E-02  3.000E+00  1.909E+03  0.000E+00  0.000E+00
   1   36   55     6     9    7.6777E+03 -5.4467E+01   7.7321E+03  0.000E+00  0.000E+00  0.000E+00  1.97605E+03  4.644E-02  3.000E+00  9.546E+02  0.000E+00  0.000E+00
   1   36   34     7     1    2.3563E+03 -5.5002E+01   2.4113E+03  0.000E+00  0.000E+00  0.000E+00  2.07701E+03  1.473E-02  3.000E+00  9.546E+02  0.000E+00  0.000E+00
   1   35   35     7     2    2.4113E+03 -1.1681E+02   2.5281E+03  0.000E+00  0.000E+00  0.000E+00  2.06702E+03  1.981E-02  3.000E+00  1.630E+03  0.000E+00  0.000E+00
   1   35   36     7     3    2.5281E+03  1.0709E+01   2.5174E+03  0.000E+00  0.000E+00  0.000E+00  2.06202E+03  1.980E-02  3.000E+00  1.350E+03  0.000E+00  0.000E+00
   1   35   37     7     4    2.5174E+03 -5.5344E+01   2.5727E+03  0.000E+00  0.000E+00  0.000E+00  2.05402E+03  1.519E-02  3.000E+00  6.750E+02  0.000E+00  0.000E+00
   1   52   49     8     1    0.0000E+00 -2.1352E+02   2.1352E+02  0.000E+00  0.000E+00  0.000E+00  2.12100E+03  2.939E-03  3.000E+00  1.909E+03  0.000E+00  0.000E+00
   1   51   48     8     2    2.1352E+02 -2.0909E+02   4.2261E+02  0.000E+00  0.000E+00  0.000E+00  2.11701E+03  9.030E-03  3.000E+00  1.909E+03  0.000E+00  0.000E+00
   1   50   47     8     3    4.2261E+02  9.7776E+01   3.2484E+02  0.000E+00  0.000E+00  0.000E+00  2.11701E+03  7.705E-03  3.000E+00  1.630E+03  9.776E+01  1.703E-02
   1   49   47     8     4    3.2484E+02 -2.2330E+02   5.4814E+02  0.000E+00  0.000E+00  0.000E+00  2.10901E+03  7.910E-03  3.000E+00  1.630E+03  0.000E+00  0.000E+00
   1   48   46     8     5    5.4814E+02  5.7736E-01   5.4756E+02  0.000E+00  0.000E+00  0.000E+00  2.10701E+03  1.193E-02  3.000E+00  1.630E+03  0.000E+00  0.000E+00
   1   47   46     8     6    5.4756E+02  8.4911E+01   4.6265E+02  0.000E+00  0.000E+00  0.000E+00  2.10501E+03  1.074E-02  3.000E+00  1.350E+03  0.000E+00  0.000E+00
   1   46   46     8     7    4.6265E+02  8.1000E+01   3.8165E+02  0.000E+00  0.000E+00  0.000E+00  2.10301E+03  8.541E-03  3.000E+00  1.350E+03  8.112E+01 -1.162E-01
   1   45   46     8     8    3.8165E+02  8.1000E+01   3.0065E+02  0.000E+00  0.000E+00  0.000E+00  2.09901E+03  6.105E-03  3.000E+00  1.350E+03  8.126E+01 -2.564E-01
   1   44   46     8     9    3.0065E+02  8.1000E+01   2.1965E+02  0.000E+00  0.000E+00  0.000E+00  2.09100E+03  4.521E-03  3.000E+00  1.350E+03  8.140E+01 -3.954E-01
   1   43   46     8    10    2.1965E+02  8.1000E+01   1.3865E+02  0.000E+00  0.000E+00  0.000E+00  2.08000E+03  3.614E-03  3.000E+00  1.350E+03  8.152E+01 -5.229E-01
   1   42   46     8    11    1.3865E+02  9.7776E+01   4.0874E+01  0.000E+00  0.000E+00  0.000E+00  2.07200E+03  2.487E-03  3.000E+00  1.630E+03  9.840E+01 -6.218E-01
   1   41   45     8    12    4.0874E+01 -6.7990E+01   1.0886E+02  0.000E+00  0.000E+00  0.000E+00  2.06000E+03  2.303E-03  3.000E+00  1.630E+03  0.000E+00  0.000E+00
   1   40   45     8    13    1.0886E+02  8.1000E+01   2.7864E+01  0.000E+00  0.000E+00  0.000E+00  2.05400E+03  2.222E-03  3.000E+00  1.350E+03  8.169E+01 -6.865E-01
   1   39   45     8    14    2.7864E+01  2.7864E+01   0.0000E+00  0.000E+00  0.000E+00  0.000E+00  2.04600E+03  2.662E-04  3.000E+00  1.350E+03  2.879E+01 -9.278E-01
   1   38   45     8    15    0.0000E+00  0.0000E+00   0.0000E+00  0.000E+00  0.000E+00  0.000E+00  2.03500E+03  0.000E+00  3.000E+00  1.350E+03  0.000E+00  0.000E+00
   1   37   45     8    16    0.0000E+00  0.0000E+00   0.0000E+00  0.000E+00  0.000E+00  0.000E+00  2.02700E+03  0.000E+00  3.000E+00  1.630E+03  0.000E+00  0.000E+00
   1   36   46     8    17    0.0000E+00  0.0000E+00   0.0000E+00  0.000E+00  0.000E+00  0.000E+00  2.02100E+03  0.000E+00  3.000E+00  1.630E+03  0.000E+00  0.000E+00
   1   35   46     8    18    0.0000E+00  0.0000E+00   0.0000E+00  0.000E+00  0.000E+00  0.000E+00  2.01400E+03  0.000E+00  3.000E+00  1.630E+03  0.000E+00  0.000E+00
   1   34   47     8    19    0.0000E+00 -2.3658E+01   2.3658E+01  0.000E+00  0.000E+00  0.000E+00  2.00700E+03  7.217E-04  3.000E+00  9.546E+02  0.000E+00  0.000E+00
   1   37   26     9     1    0.0000E+00  0.0000E+00   0.0000E+00  0.000E+00  0.000E+00  0.000E+00  2.14700E+03  0.000E+00  3.000E+00  1.350E+03  0.000E+00  0.000E+00
   1   37   27     9     2    0.0000E+00 -5.6517E+01   5.6517E+01  0.000E+00  0.000E+00  0.000E+00  2.13400E+03  1.150E-03  3.000E+00  1.350E+03  0.000E+00  0.000E+00
   1   37   28     9     3    5.6517E+01 -1.4315E+02   1.9967E+02  0.000E+00  0.000E+00  0.000E+00  2.12500E+03  3.126E-03  3.000E+00  1.630E+03  0.000E+00  0.000E+00
   1   36   29     9     4    1.9967E+02 -6.0709E+00   2.0574E+02  0.000E+00  0.000E+00  0.000E+00  2.11500E+03  4.185E-03  3.000E+00  1.630E+03  0.000E+00  0.000E+00
   1   36   30     9     5    2.0574E+02 -9.6700E+01   3.0244E+02  0.000E+00  0.000E+00  0.000E+00  2.10700E+03  4.608E-03  3.000E+00  1.350E+03  0.000E+00  0.000E+00
   1   36   31     9     6    3.0244E+02 -2.1177E+02   5.1421E+02  0.000E+00  0.000E+00  0.000E+00  2.09801E+03  6.237E-03  3.000E+00  1.350E+03  0.000E+00  0.000E+00
   1   36   32     9     7    5.1421E+02 -1.5887E+02   6.7308E+02  0.000E+00  0.000E+00  0.000E+00  2.09101E+03  8.127E-03  3.000E+00  1.350E+03  0.000E+00  0.000E+00
   1   36   33     9     8    6.7308E+02 -1.4634E+02   8.1942E+02  0.000E+00  0.000E+00  0.000E+00  2.08401E+03  9.323E-03  3.000E+00  1.350E+03  0.000E+00  0.000E+00
   1   36   34     9     9    8.1942E+02 -4.3652E+01   8.6307E+02  0.000E+00  0.000E+00  0.000E+00  2.07701E+03  7.676E-03  3.000E+00  6.750E+02  0.000E+00  0.000E+00
   1   58   37    10     1    0.0000E+00 -1.3167E+02   1.3167E+02  0.000E+00  0.000E+00  0.000E+00  2.15000E+03  3.163E-03  3.000E+00  1.350E+03  0.000E+00  0.000E+00
   1   57   37    10     2    1.3167E+02 -9.3953E+01   2.2562E+02  0.000E+00  0.000E+00  0.000E+00  2.14701E+03  5.150E-03  3.000E+00  1.630E+03  0.000E+00  0.000E+00
   1   56   38    10     3    2.2562E+02 -2.0751E+01   2.4637E+02  0.000E+00  0.000E+00  0.000E+00  2.14301E+03  5.646E-03  3.000E+00  1.630E+03  0.000E+00  0.000E+00
   1   55   38    10     4    2.4637E+02 -1.7815E+02   4.2452E+02  0.000E+00  0.000E+00  0.000E+00  2.13801E+03  6.826E-03  3.000E+00  1.350E+03  0.000E+00  0.000E+00
   1   54   38    10     5    4.2452E+02 -1.2234E+02   5.4686E+02  0.000E+00  0.000E+00  0.000E+00  2.13501E+03  9.290E-03  3.000E+00  1.350E+03  0.000E+00  0.000E+00
   1   53   38    10     6    5.4686E+02 -1.1917E+02   6.6603E+02  0.000E+00  0.000E+00  0.000E+00  2.13201E+03  1.061E-02  3.000E+00  1.350E+03  0.000E+00  0.000E+00
   1   52   38    10     7    6.6603E+02 -1.8125E+02   8.4728E+02  0.000E+00  0.000E+00  0.000E+00  2.12901E+03  1.448E-02  3.000E+00  1.630E+03  0.000E+00  0.000E+00
   1   51   39    10     8    8.4728E+02 -5.0803E+00   8.5236E+02  0.000E+00  0.000E+00  0.000E+00  2.12802E+03  1.553E-02  3.000E+00  1.630E+03  0.000E+00  0.000E+00
   1   50   39    10     9    8.5236E+02 -8.9796E+01   9.4215E+02  0.000E+00  0.000E+00  0.000E+00  2.12501E+03  1.356E-02  3.000E+00  1.630E+03  0.000E+00  0.000E+00
   1   49   38    10    10    9.4215E+02 -1.5767E+02   1.0998E+03  0.000E+00  0.000E+00  0.000E+00  2.12102E+03  1.537E-02  3.000E+00  1.909E+03  0.000E+00  0.000E+00
   1   48   37    10    11    1.0998E+03  1.5709E+01   1.0841E+03  0.000E+00  0.000E+00  0.000E+00  2.11801E+03  1.361E-02  3.000E+00  1.909E+03  0.000E+00  0.000E+00
   1   47   36    10    12    1.0841E+03 -3.4334E+02   1.4275E+03  0.000E+00  0.000E+00  0.000E+00  2.10901E+03  1.412E-02  3.000E+00  1.630E+03  0.000E+00  0.000E+00
   1   46   36    10    13    1.4275E+03 -1.3877E+02   1.5662E+03  0.000E+00  0.000E+00  0.000E+00  2.10602E+03  1.743E-02  3.000E+00  1.350E+03  0.000E+00  0.000E+00
   1   45   36    10    14    1.5662E+03 -1.7404E+02   1.7403E+03  0.000E+00  0.000E+00  0.000E+00  2.10202E+03  1.850E-02  3.000E+00  1.350E+03  0.000E+00  0.000E+00
   1   44   36    10    15    1.7403E+03 -1.0136E+02   1.8416E+03  0.000E+00  0.000E+00  0.000E+00  2.09902E+03  2.033E-02  3.000E+00  1.350E+03  0.000E+00  0.000E+00
   1   43   36    10    16    1.8416E+03 -5.6786E+00   1.8473E+03  0.000E+00  0.000E+00  0.000E+00  2.09602E+03  1.938E-02  3.000E+00  1.630E+03  0.000E+00  0.000E+00
   1   42   37    10    17    1.8473E+03  9.7776E+01   1.7495E+03  0.000E+00  0.000E+00  0.000E+00  2.09002E+03  1.606E-02  3.000E+00  1.630E+03  0.000E+00  0.000E+00
   1   41   37    10    18    1.7495E+03 -2.3573E+02   1.9853E+03  0.000E+00  0.000E+00  0.000E+00  2.08002E+03  1.553E-02  3.000E+00  1.350E+03  0.000E+00  0.000E+00
   1   40   37    10    19    1.9853E+03 -3.3785E+02   2.3231E+03  0.000E+00  0.000E+00  0.000E+00  2.07402E+03  2.127E-02  3.000E+00  1.630E+03  0.000E+00  0.000E+00
   1   39   38    10    20    2.3231E+03 -3.8708E+01   2.3618E+03  0.000E+00  0.000E+00  0.000E+00  2.07102E+03  2.412E-02  3.000E+00  1.630E+03  0.000E+00  0.000E+00
   1   38   38    10    21    2.3618E+03  7.7889E+00   2.3540E+03  0.000E+00  0.000E+00  0.000E+00  2.06702E+03  2.176E-02  3.000E+00  1.630E+03  0.000E+00  0.000E+00
   1   37   37    10    22    2.3540E+03 -3.0752E+02   2.6616E+03  0.000E+00  0.000E+00  0.000E+00  2.06102E+03  2.258E-02  3.000E+00  1.630E+03  0.000E+00  0.000E+00
   1   36   37    10    23    2.6616E+03 -2.1752E+02   2.8791E+03  0.000E+00  0.000E+00  0.000E+00  2.05703E+03  2.521E-02  3.000E+00  1.350E+03  0.000E+00  0.000E+00
   1   35   37    10    24    2.8791E+03 -5.3175E+01   2.9323E+03  0.000E+00  0.000E+00  0.000E+00  2.05402E+03  1.840E-02  3.000E+00  6.750E+02  0.000E+00  0.000E+00
   1   36   55    11     1    8.3595E+03 -4.3000E+01   8.4025E+03  0.000E+00  0.000E+00  0.000E+00  1.97604E+03  3.979E-02  3.000E+00  6.750E+02  0.000E+00  0.000E+00
   1   36   56    11     2    8.4025E+03 -6.8031E+01   8.4706E+03  0.000E+00  0.000E+00  0.000E+00  1.97507E+03  6.710E-02  3.000E+00  1.630E+03  0.000E+00  0.000E+00
   1   37   57    11     3    8.4706E+03 -1.4710E+02   8.6177E+03  0.000E+00  0.000E+00  0.000E+00  1.97307E+03  6.761E-02  3.000E+00  1.630E+03  0.000E+00  0.000E+00
   1   37   58    11     4    8.6177E+03 -1.0175E+02   8.7194E+03  0.000E+00  0.000E+00  0.000E+00  1.97209E+03  8.962E-02  3.000E+00  1.350E+03  0.000E+00  0.000E+00
   1   37   59    11     5    8.7194E+03 -7.8968E+00   8.7273E+03  0.000E+00  0.000E+00  0.000E+00  1.97207E+03  7.307E-02  3.000E+00  1.350E+03  0.000E+00  0.000E+00
   1   37   60    11     6    8.7273E+03 -3.0572E+01   8.7579E+03  0.000E+00  0.000E+00  0.000E+00  1.97006E+03  5.881E-02  3.000E+00  1.630E+03  0.000E+00  0.000E+00
   1   38   61    11     7    8.7579E+03 -1.0195E+02   8.8598E+03  0.000E+00  0.000E+00  0.000E+00  1.96705E+03  5.341E-02  3.000E+00  1.630E+03  0.000E+00  0.000E+00
   1   38   62    11     8    8.8598E+03 -9.9023E+01   8.9589E+03  0.000E+00  0.000E+00  0.000E+00  1.96305E+03  4.882E-02  3.000E+00  6.750E+02  0.000E+00  0.000E+00
   1   51   11    12     1    0.0000E+00 -4.9468E+02   4.9468E+02  0.000E+00  0.000E+00  0.000E+00  2.38700E+03  4.657E-03  3.000E+00  1.909E+03  0.000E+00  0.000E+00
   1   50   12    12     2    4.9468E+02 -6.6671E+01   5.6136E+02  0.000E+00  0.000E+00  0.000E+00  2.37501E+03  6.999E-03  3.000E+00  1.630E+03  0.000E+00  0.000E+00
   1   49   12    12     3    5.6136E+02 -3.9682E+02   9.5818E+02  0.000E+00  0.000E+00  0.000E+00  2.36501E+03  9.098E-03  3.000E+00  1.630E+03  0.000E+00  0.000E+00
   1   48   13    12     4    9.5818E+02 -1.9543E+02   1.1536E+03  0.000E+00  0.000E+00  0.000E+00  2.35601E+03  1.190E-02  3.000E+00  1.630E+03  0.000E+00  0.000E+00
   1   48   14    12     5    1.1536E+03 -1.7115E+02   1.3248E+03  0.000E+00  0.000E+00  0.000E+00  2.35001E+03  1.285E-02  3.000E+00  1.630E+03  0.000E+00  0.000E+00
   1   47   15    12     6    1.3248E+03 -1.7849E+02   1.5033E+03  0.000E+00  0.000E+00  0.000E+00  2.34001E+03  1.418E-02  3.000E+00  1.630E+03  0.000E+00  0.000E+00
   1   47   16    12     7    1.5033E+03 -1.3292E+02   1.6362E+03  0.000E+00  0.000E+00  0.000E+00  2.33502E+03  1.657E-02  3.000E+00  1.630E+03  0.000E+00  0.000E+00
   1   46   17    12     8    1.6362E+03  7.0508E+01   1.5657E+03  0.000E+00  0.000E+00  0.000E+00  2.32902E+03  1.559E-02  3.000E+00  1.630E+03  0.000E+00  0.000E+00
   1   46   18    12     9    1.5657E+03  1.6390E+02   1.4018E+03  0.000E+00  0.000E+00  0.000E+00  2.32101E+03  1.213E-02  3.000E+00  1.350E+03  0.000E+00  0.000E+00
   1   46   19    12    10    1.4018E+03 -1.6598E+02   1.5678E+03  0.000E+00  0.000E+00  0.000E+00  2.30601E+03  1.380E-02  3.000E+00  1.350E+03  0.000E+00  0.000E+00
   1   46   20    12    11    1.5678E+03  9.7776E+01   1.4700E+03  0.000E+00  0.000E+00  0.000E+00  2.30601E+03  1.179E-02  3.000E+00  1.630E+03  9.770E+01  7.981E-02
   1   45   21    12    12    1.4700E+03 -5.7725E+01   1.5277E+03  0.000E+00  0.000E+00  0.000E+00  2.27401E+03  1.037E-02  3.000E+00  1.909E+03  0.000E+00  0.000E+00
   1   44   22    12    13    1.5277E+03 -1.4599E+02   1.6737E+03  0.000E+00  0.000E+00  0.000E+00  2.25001E+03  1.168E-02  3.000E+00  1.909E+03  0.000E+00  0.000E+00
   1   43   23    12    14    1.6737E+03  1.4755E+02   1.5261E+03  0.000E+00  0.000E+00  0.000E+00  2.23101E+03  1.176E-02  3.000E+00  1.909E+03  0.000E+00  0.000E+00
   1   42   24    12    15    1.5261E+03 -8.4049E+01   1.6102E+03  0.000E+00  0.000E+00  0.000E+00  2.20801E+03  1.213E-02  3.000E+00  1.630E+03  0.000E+00  0.000E+00
   1   42   25    12    16    1.6102E+03 -2.3519E+01   1.6337E+03  0.000E+00  0.000E+00  0.000E+00  2.20001E+03  1.335E-02  3.000E+00  1.350E+03  0.000E+00  0.000E+00
   1   42   26    12    17    1.6337E+03  1.1953E+02   1.5142E+03  0.000E+00  0.000E+00  0.000E+00  2.18801E+03  1.161E-02  3.000E+00  1.350E+03  0.000E+00  0.000E+00
   1   42   27    12    18    1.5142E+03 -2.6460E+02   1.7788E+03  0.000E+00  0.000E+00  0.000E+00  2.17001E+03  1.205E-02  3.000E+00  1.350E+03  0.000E+00  0.000E+00
   1   42   28    12    19    1.7788E+03 -9.1261E+01   1.8701E+03  0.000E+00  0.000E+00  0.000E+00  2.15901E+03  1.370E-02  3.000E+00  1.630E+03  0.000E+00  0.000E+00
   1   41   29    12    20    1.8701E+03  1.5366E+02   1.7164E+03  0.000E+00  0.000E+00  0.000E+00  2.14201E+03  1.366E-02  3.000E+00  1.909E+03  0.000E+00  0.000E+00
   1   40   30    12    21    1.7164E+03  5.4165E+01   1.6622E+03  0.000E+00  0.000E+00  0.000E+00  2.12701E+03  1.387E-02  3.000E+00  1.909E+03  0.000E+00  0.000E+00
   1   39   31    12    22    1.6622E+03  1.1455E+02   1.5477E+03  0.000E+00  0.000E+00  0.000E+00  2.11501E+03  1.393E-02  3.000E+00  1.909E+03  1.148E+02 -2.443E-01
   1   38   32    12    23    1.5477E+03  1.1455E+02   1.4331E+03  0.000E+00  0.000E+00  0.000E+00  2.10301E+03  1.301E-02  3.000E+00  1.909E+03  1.148E+02 -2.618E-01
   1   37   33    12    24    1.4331E+03 -1.5432E+00   1.4347E+03  0.000E+00  0.000E+00  0.000E+00  2.08901E+03  1.271E-02  3.000E+00  1.909E+03  0.000E+00  0.000E+00
   1   36   34    12    25    1.4347E+03 -5.8568E+01   1.4932E+03  0.000E+00  0.000E+00  0.000E+00  2.07701E+03  1.099E-02  3.000E+00  9.546E+02  0.000E+00  0.000E+00
   1   38   62    13     1    9.1430E+03 -1.0646E+02   9.2495E+03  0.000E+00  0.000E+00  0.000E+00  1.96304E+03  3.780E-02  3.000E+00  6.750E+02  0.000E+00  0.000E+00
   1   38   63    13     2    9.2495E+03 -1.0846E+01   9.2603E+03  0.000E+00  0.000E+00  0.000E+00  1.96547E+03  2.471E+00  3.000E+00  1.350E+03  0.000E+00  0.000E+00
   1   38   64    13     3    9.2603E+03  1.5456E+01   9.2448E+03  0.000E+00  0.000E+00  0.000E+00  1.96547E+03  2.471E+00  3.000E+00  1.350E+03  0.000E+00  0.000E+00
   1   38   65    13     4    9.2448E+03 -4.9936E+01   9.2948E+03  0.000E+00  0.000E+00  0.000E+00  1.96307E+03  6.711E-02  3.000E+00  1.350E+03  0.000E+00  0.000E+00
   1   38   66    13     5    9.2948E+03 -8.4604E+01   9.3794E+03  0.000E+00  0.000E+00  0.000E+00  1.96006E+03  5.783E-02  3.000E+00  1.350E+03  0.000E+00  0.000E+00
   1   38   67    13     6    9.3794E+03 -5.9791E+01   9.4392E+03  0.000E+00  0.000E+00  0.000E+00  1.95806E+03  5.557E-02  3.000E+00  1.630E+03  0.000E+00  0.000E+00
   1   39   68    13     7    9.4392E+03 -3.2587E+01   9.4718E+03  0.000E+00  0.000E+00  0.000E+00  1.95305E+03  5.007E-02  3.000E+00  1.630E+03  0.000E+00  0.000E+00
   1   39   69    13     8    9.4718E+03 -8.7636E+01   9.5594E+03  0.000E+00  0.000E+00  0.000E+00  1.94805E+03  5.287E-02  3.000E+00  1.350E+03  0.000E+00  0.000E+00
   1   39   70    13     9    9.5594E+03  1.7328E+01   9.5421E+03  0.000E+00  0.000E+00  0.000E+00  1.94605E+03  4.508E-02  3.000E+00  6.750E+02  0.000E+00  0.000E+00
   1   46   61    14     1    0.0000E+00 -2.5587E+01   2.5587E+01  0.000E+00  0.000E+00  0.000E+00  2.01700E+03  8.151E-04  3.000E+00  1.350E+03  0.000E+00  0.000E+00
   1   45   61    14     2    2.5587E+01  2.5587E+01   0.0000E+00  0.000E+00  0.000E+00  0.000E+00  2.01000E+03  2.980E-04  3.000E+00  1.350E+03  0.000E+00  0.000E+00
   1   44   61    14     3    0.0000E+00  0.0000E+00   0.0000E+00  0.000E+00  0.000E+00  0.000E+00  2.00600E+03  0.000E+00  3.000E+00  1.350E+03  0.000E+00  0.000E+00
   1   43   61    14     4    0.0000E+00  0.0000E+00   0.0000E+00  0.000E+00  0.000E+00  0.000E+00  1.99900E+03  0.000E+00  3.000E+00  1.350E+03  0.000E+00  0.000E+00
   1   42   61    14     5    0.0000E+00  0.0000E+00   0.0000E+00  0.000E+00  0.000E+00  0.000E+00  1.99300E+03  0.000E+00  3.000E+00  1.350E+03  0.000E+00  0.000E+00
   1   41   61    14     6    0.0000E+00  0.0000E+00   0.0000E+00  0.000E+00  0.000E+00  0.000E+00  1.98500E+03  0.000E+00  3.000E+00  1.350E+03  0.000E+00  0.000E+00
   1   40   61    14     7    0.0000E+00 -3.4070E+01   3.4070E+01  0.000E+00  0.000E+00  0.000E+00  1.97800E+03  1.013E-03  3.000E+00  1.350E+03  0.000E+00  0.000E+00
   1   39   61    14     8    3.4070E+01  3.4070E+01   0.0000E+00  0.000E+00  0.000E+00  0.000E+00  1.97300E+03  3.411E-04  3.000E+00  1.630E+03  0.000E+00  0.000E+00
   1   38   62    14     9    0.0000E+00 -1.8411E+02   1.8411E+02  0.000E+00  0.000E+00  0.000E+00  1.96300E+03  2.652E-03  3.000E+00  9.546E+02  0.000E+00  0.000E+00
   1   39   70    15     1    1.0204E+04  1.3286E+01   1.0191E+04  0.000E+00  0.000E+00  0.000E+00  1.94604E+03  3.909E-02  3.000E+00  6.750E+02  0.000E+00  0.000E+00
   1   39   71    15     2    1.0191E+04 -1.1878E+02   1.0309E+04  0.000E+00  0.000E+00  0.000E+00  1.94206E+03  6.471E-02  3.000E+00  1.630E+03  0.000E+00  0.000E+00
   1   40   72    15     3    1.0309E+04 -3.8684E+01   1.0348E+04  0.000E+00  0.000E+00  0.000E+00  1.94107E+03  6.951E-02  3.000E+00  1.630E+03  0.000E+00  0.000E+00
   1   40   73    15     4    1.0348E+04 -5.5480E+01   1.0404E+04  0.000E+00  0.000E+00  0.000E+00  1.93806E+03  6.160E-02  3.000E+00  1.350E+03  0.000E+00  0.000E+00
   1   40   74    15     5    1.0404E+04 -3.2958E+01   1.0437E+04  0.000E+00  0.000E+00  0.000E+00  1.93607E+03  6.604E-02  3.000E+00  1.350E+03  0.000E+00  0.000E+00
   1   40   75    15     6    1.0437E+04 -2.1065E+00   1.0439E+04  0.000E+00  0.000E+00  0.000E+00  1.93406E+03  5.853E-02  3.000E+00  6.750E+02  0.000E+00  0.000E+00
   1   40   75    16     1    1.1393E+04 -5.8865E+00   1.1399E+04  0.000E+00  0.000E+00  0.000E+00  1.93405E+03  5.293E-02  3.000E+00  6.750E+02  0.000E+00  0.000E+00
   1   40   76    16     2    1.1399E+04  0.0000E+00   1.1399E+04  0.000E+00  0.000E+00  0.000E+00  1.93308E+03  7.597E-02  3.000E+00  0.000E+00  0.000E+00  0.000E+00
   1   55   73    17     1    0.0000E+00  0.0000E+00   0.0000E+00  0.000E+00  0.000E+00  0.000E+00  2.04100E+03  0.000E+00  3.000E+00  1.350E+03  0.000E+00  0.000E+00
   1   54   73    17     2    0.0000E+00  0.0000E+00   0.0000E+00  0.000E+00  0.000E+00  0.000E+00  2.02900E+03  0.000E+00  3.000E+00  1.350E+03  0.000E+00  0.000E+00
   1   53   73    17     3    0.0000E+00  0.0000E+00   0.0000E+00  0.000E+00  0.000E+00  0.000E+00  2.01700E+03  0.000E+00  3.000E+00  1.350E+03  0.000E+00  0.000E+00
   1   52   73    17     4    0.0000E+00 -6.0287E+01   6.0287E+01  0.000E+00  0.000E+00  0.000E+00  2.01000E+03  1.316E-03  3.000E+00  1.630E+03  0.000E+00  0.000E+00
   1   51   72    17     5    6.0287E+01 -2.4805E+02   3.0834E+02  0.000E+00  0.000E+00  0.000E+00  1.99800E+03  4.021E-03  3.000E+00  1.630E+03  0.000E+00  0.000E+00
   1   50   72    17     6    3.0834E+02 -2.0549E+01   3.2888E+02  0.000E+00  0.000E+00  0.000E+00  1.99301E+03  5.859E-03  3.000E+00  1.350E+03  0.000E+00  0.000E+00
   1   49   72    17     7    3.2888E+02 -8.5379E+01   4.1426E+02  0.000E+00  0.000E+00  0.000E+00  1.98601E+03  6.135E-03  3.000E+00  1.350E+03  0.000E+00  0.000E+00
   1   48   72    17     8    4.1426E+02 -1.3034E+02   5.4461E+02  0.000E+00  0.000E+00  0.000E+00  1.97901E+03  7.149E-03  3.000E+00  1.350E+03  0.000E+00  0.000E+00
   1   47   72    17     9    5.4461E+02 -1.9629E+02   7.4090E+02  0.000E+00  0.000E+00  0.000E+00  1.97201E+03  8.716E-03  3.000E+00  1.350E+03  0.000E+00  0.000E+00
   1   46   72    17    10    7.4090E+02 -2.4164E+01   7.6506E+02  0.000E+00  0.000E+00  0.000E+00  1.96601E+03  9.817E-03  3.000E+00  1.350E+03  0.000E+00  0.000E+00
   1   45   72    17    11    7.6506E+02 -1.0522E+01   7.7559E+02  0.000E+00  0.000E+00  0.000E+00  1.96001E+03  1.005E-02  3.000E+00  1.630E+03  0.000E+00  0.000E+00
   1   44   73    17    12    7.7559E+02 -2.6451E+01   8.0204E+02  0.000E+00  0.000E+00  0.000E+00  1.95201E+03  1.043E-02  3.000E+00  1.630E+03  0.000E+00  0.000E+00
   1   43   73    17    13    8.0204E+02 -4.6109E+01   8.4815E+02  0.000E+00  0.000E+00  0.000E+00  1.94701E+03  1.171E-02  3.000E+00  1.350E+03  0.000E+00  0.000E+00
   1   42   73    17    14    8.4815E+02 -1.1508E+01   8.5965E+02  0.000E+00  0.000E+00  0.000E+00  1.94401E+03  1.221E-02  3.000E+00  1.630E+03  0.000E+00  0.000E+00
   1   41   74    17    15    8.5965E+02 -4.8083E+01   9.0774E+02  0.000E+00  0.000E+00  0.000E+00  1.93801E+03  1.266E-02  3.000E+00  1.909E+03  0.000E+00  0.000E+00
   1   40   75    17    16    9.0774E+02 -4.6382E+01   9.5412E+02  0.000E+00  0.000E+00  0.000E+00  1.93401E+03  1.307E-02  3.000E+00  9.546E+02  0.000E+00  0.000E+00
   1   37   55    18     1    0.0000E+00  0.0000E+00   0.0000E+00  0.000E+00  0.000E+00  0.000E+00  2.00700E+03  0.000E+00  3.000E+00  1.630E+03  0.000E+00  0.000E+00
   1   36   54    19     1    0.0000E+00  0.0000E+00   0.0000E+00  0.000E+00  0.000E+00  0.000E+00  2.00700E+03  0.000E+00  3.000E+00  1.630E+03  0.000E+00  0.000E+00



1
  VOLUMETRIC BUDGET FOR UNSATURATED ZONE BENEATH STREAMS AT END OF TIME STEP     1 STRESS PERIOD   5
  ------------------------------------------------------------------------------------------------

    CUMULATIVE VOLUMES             L**3    RATES FOR THIS TIME STEP         L**3/T
    ------------------                     ------------------------


          STREAM LOSS =       104273.3672            STREAM LOSS =         1150.8450
    CHANGE IN STORAGE =          151.6922      CHANGE IN STORAGE =           -4.9980
       RECHARGE TO GW =       104121.8281         RECHARGE TO GW =         1155.8430

             TOTAL IN =       104273.3672               TOTAL IN =         1155.8430

            TOTAL OUT =       104273.5234              TOTAL OUT =         1155.8430

             IN - OUT =           -0.1562               IN - OUT =            0.0000

  PERCENT DISCREPANCY =           -0.00      PERCENT DISCREPANCY =             0.00



 ***WARNING***NUZTOP IS 3 AND ALL LAYERS  IN ROW           39  AND COLUMN           76  ARE INACTIVE.
 UNSATURATED FLOW WILL NOT BE ADDED TO ANY LAYER-- SOME WATER MAY FLOW PAST LOWEST LAYER
 ***WARNING***NUZTOP IS 3 AND ALL LAYERS  IN ROW           40  AND COLUMN           76  ARE INACTIVE.
 UNSATURATED FLOW WILL NOT BE ADDED TO ANY LAYER-- SOME WATER MAY FLOW PAST LOWEST LAYER


UNSATURATED ZONE PACKAGE VOLUMETRIC BUDGET FOR  TIME STEP     1 STRESS PERIOD    5
  ------------------------------------------------------------------------------



     CUMULATIVE VOLUMES      L**3       RATES FOR THIS TIME STEP      L**3/T
     ------------------                 ------------------------

           IN:                                      IN:
           ---                                      ---
        INFILTRATION =       26653.0419          INFILTRATION =       0.0000E+00

          OUT:                                     OUT:
          ----                                     ----
              UZF ET =      657761.3885                UZF ET =           0.3472
        UZF RECHARGE =     1788985.6507          UZF RECHARGE =       14591.2563

            IN - OUT =    -2420093.9972              IN - OUT =      -14591.6035

          STORAGE:                                 STORAGE:
          --------                                 --------
      STORAGE CHANGE =    -2418117.9351        STORAGE CHANGE =      -14591.4809

 PERCENT DISCREPANCY IS DIFFERENCE BETWEEN IN-OUT MINUS CHANGE IN STORAGE
 DIVIDED BY THE AVERAGE OF IN AND OUT TIMES 100

 PERCENT DISCREPANCY =          -0.02     PERCENT DISCREPANCY =          -0.00








        GW IRRIGATION     PERIOD    5   STEP   1

1
  VOLUMETRIC BUDGET FOR AGRICULTURAL FIELDS AT  END OF TIME STEP    1, STRESS PERIOD   5
  ------------------------------------------------------------------------------

     CUMULATIVE VOLUMES      L**3       RATES FOR THIS TIME STEP      L**3/T
     ------------------                 ------------------------

           IN:                                      IN:
           ---                                      ---
               AG WELLS  =           0.0000                 AG WELLS  =          -0.0000
      DIVERSION SEGMENTS =           0.0000        DIVERSION SEGMENTS =           0.0000
       IRRIGATION PONDS  =           0.0000         IRRIGATION PONDS  =           0.0000
           GW IRRIGATION =           0.0000             GW IRRIGATION =           0.0000
           SW IRRIGATION =           0.0000             SW IRRIGATION =           0.0000
        SYSTEM LOSSES GW =           0.0000          SYSTEM LOSSES GW =           0.0000
        SYSTEM LOSSES SW =           0.0000          SYSTEM LOSSES SW =          -0.0000

                TOTAL IN =           0.0000                  TOTAL IN =           0.0000

          OUT:                                     OUT:
          ----                                     ----
               AG WELLS  =           0.0000                 AG WELLS  =           0.0000
      DIVERSION SEGMENTS =           0.0000        DIVERSION SEGMENTS =           0.0000
       IRRIGATION PONDS  =           0.0000         IRRIGATION PONDS  =           0.0000
           GW IRRIGATION =           0.0000             GW IRRIGATION =           0.0000
           SW IRRIGATION =           0.0000             SW IRRIGATION =           0.0000
        SYSTEM LOSSES GW =           0.0000          SYSTEM LOSSES GW =           0.0000
        SYSTEM LOSSES SW =           0.0000          SYSTEM LOSSES SW =           0.0000

               TOTAL OUT =           0.0000                 TOTAL OUT =           0.0000

                IN - OUT =           0.0000                  IN - OUT =           0.0000

     PERCENT DISCREPANCY =           0.00         PERCENT DISCREPANCY =           0.00




 HEAD WILL BE SAVED ON UNIT   58 AT END OF TIME STEP    1, STRESS PERIOD    5
1
  VOLUMETRIC BUDGET FOR ENTIRE MODEL AT END OF TIME STEP    1, STRESS PERIOD   5
  ------------------------------------------------------------------------------

     CUMULATIVE VOLUMES      L**3       RATES FOR THIS TIME STEP      L**3/T
     ------------------                 ------------------------

           IN:                                      IN:
           ---                                      ---
             STORAGE     =      216162.8750               STORAGE     =        4008.2075
       CONSTANT HEAD     =           1.1312         CONSTANT HEAD     =           0.1729
      STREAM LEAKAGE     =      254043.0156        STREAM LEAKAGE     =        2440.4075
        UZF RECHARGE     =     1789000.0000          UZF RECHARGE     =       14591.2529
               GW ET     =           0.0000                 GW ET     =           0.0000
     SURFACE LEAKAGE     =           0.0000       SURFACE LEAKAGE     =           0.0000
           AG WELLS      =           0.0000             AG WELLS      =           0.0000

                TOTAL IN =     2259207.0000                  TOTAL IN =       21040.0410

          OUT:                                     OUT:
          ----                                     ----
             STORAGE     =      807057.9375               STORAGE     =        6587.8882
       CONSTANT HEAD     =        3371.6289         CONSTANT HEAD     =          35.5577
      STREAM LEAKAGE     =     1159201.0000        STREAM LEAKAGE     =       13829.7588
        UZF RECHARGE     =           0.0000          UZF RECHARGE     =           0.0000
               GW ET     =      280334.8438                 GW ET     =         427.9851
     SURFACE LEAKAGE     =        9111.5186       SURFACE LEAKAGE     =         161.8412
           AG WELLS      =           0.0000             AG WELLS      =           0.0000

               TOTAL OUT =     2259076.7500                 TOTAL OUT =       21043.0312

                IN - OUT =         130.2500                  IN - OUT =          -2.9902

     PERCENT DISCREPANCY =           0.01         PERCENT DISCREPANCY =          -0.01






         TIME SUMMARY AT END OF TIME STEP    1 IN STRESS PERIOD    5
                    SECONDS     MINUTES      HOURS       DAYS        YEARS
                    -----------------------------------------------------------
   TIME STEP LENGTH  86400.      1440.0      24.000      1.0000     2.73785E-03
 STRESS PERIOD TIME  86400.      1440.0      24.000      1.0000     2.73785E-03
         TOTAL TIME 8.12160E+06 1.35360E+05  2256.0      94.000     0.25736    
1
                                                   Max.-Head-Change                         Max.-Flux-Residual
  Residual-Control   Outer-Iter.   Inner-Iter.     Column Row Layer    Maximum-Head-Change  Column Row Layer    Maximum-Flux-Residual          L2-NORM 
          0                 1           5            20   52     1       0.8634124076E+00      39   59    1         0.4361992988E+02      0.2735601749E+03
          0                 2           4            67   56     1       0.5721755600E+00      67   56    1         0.9279947560E+01      0.5102864662E+02
          0                 3           2            47   21     1       0.3687749935E-02      47   21    1         0.2725144215E+01      0.1671280035E+02
          0                 4           2             2   58     1       0.1678462323E-02      64   38    1         0.1815548447E+01      0.6938608910E+01
          0                 5           1             2   58     1       0.9906739369E-03      64   38    1         0.9618969289E+00      0.3035185779E+01

    ------------------------------------------------
       NWT REQUIRED            5 OUTER ITERATIONS 
       AND A TOTAL OF         14 INNER ITERATIONS.
    ------------------------------------------------

 NO OUTPUT CONTROL FOR STRESS PERIOD    5   TIME STEP    2
 ***WARNING***NUZTOP IS 3 AND ALL LAYERS  IN ROW           39  AND COLUMN           76  ARE INACTIVE.
 UNSATURATED FLOW WILL NOT BE ADDED TO ANY LAYER-- SOME WATER MAY FLOW PAST LOWEST LAYER
 ***WARNING***NUZTOP IS 3 AND ALL LAYERS  IN ROW           40  AND COLUMN           76  ARE INACTIVE.
 UNSATURATED FLOW WILL NOT BE ADDED TO ANY LAYER-- SOME WATER MAY FLOW PAST LOWEST LAYER
                                                   Max.-Head-Change                         Max.-Flux-Residual
  Residual-Control   Outer-Iter.   Inner-Iter.     Column Row Layer    Maximum-Head-Change  Column Row Layer    Maximum-Flux-Residual          L2-NORM 
          0                 1           5            62   31     1      -0.4349290746E+00      39   59    1         0.4326572673E+02      0.2663551504E+03
          0                 2           4            27   33     1       0.7607665854E+00      27   33    1         0.1061568967E+02      0.5111738293E+02
          0                 3           2            26   33     1       0.7890852698E-02      64   38    1        -0.7300289667E+01      0.1937016942E+02
          0                 4           2            64   38     1      -0.4713157398E-02      64   38    1        -0.6642873303E+01      0.1142963656E+02
          0                 5           2            64   38     1      -0.1953230391E-02      64   38    1        -0.2767658984E+01      0.4354141282E+01
          0                 6           1             2   58     1       0.5569484351E-03      64   38    1        -0.7397107968E+00      0.1555968100E+01

    ------------------------------------------------
       NWT REQUIRED            6 OUTER ITERATIONS 
       AND A TOTAL OF         16 INNER ITERATIONS.
    ------------------------------------------------

 NO OUTPUT CONTROL FOR STRESS PERIOD    5   TIME STEP    3
 ***WARNING***NUZTOP IS 3 AND ALL LAYERS  IN ROW           39  AND COLUMN           76  ARE INACTIVE.
 UNSATURATED FLOW WILL NOT BE ADDED TO ANY LAYER-- SOME WATER MAY FLOW PAST LOWEST LAYER
 ***WARNING***NUZTOP IS 3 AND ALL LAYERS  IN ROW           40  AND COLUMN           76  ARE INACTIVE.
 UNSATURATED FLOW WILL NOT BE ADDED TO ANY LAYER-- SOME WATER MAY FLOW PAST LOWEST LAYER
                                                   Max.-Head-Change                         Max.-Flux-Residual
  Residual-Control   Outer-Iter.   Inner-Iter.     Column Row Layer    Maximum-Head-Change  Column Row Layer    Maximum-Flux-Residual          L2-NORM 
          0                 1           5            62   31     1      -0.4270092062E+00      39   59    1         0.3838784274E+02      0.2449576830E+03
          0                 2           3            58   12     1       0.7375475643E-01      63   38    1        -0.8843245096E+01      0.4814466229E+02
          0                 3           2            64   38     1      -0.4744165954E-02      64   38    1        -0.6694447114E+01      0.1858953803E+02
          0                 4           2            63   38     1      -0.5025196529E-02      63   38    1        -0.7101010253E+01      0.1184111244E+02
          0                 5           2            64   38     1      -0.2158726960E-02      64   38    1        -0.3058905763E+01      0.4648875440E+01
          0                 6           1            64   38     1      -0.5963549754E-03      64   38    1        -0.8478737504E+00      0.1614696947E+01

    ------------------------------------------------
       NWT REQUIRED            6 OUTER ITERATIONS 
       AND A TOTAL OF         15 INNER ITERATIONS.
    ------------------------------------------------

 NO OUTPUT CONTROL FOR STRESS PERIOD    5   TIME STEP    4
 ***WARNING***NUZTOP IS 3 AND ALL LAYERS  IN ROW           39  AND COLUMN           76  ARE INACTIVE.
 UNSATURATED FLOW WILL NOT BE ADDED TO ANY LAYER-- SOME WATER MAY FLOW PAST LOWEST LAYER
 ***WARNING***NUZTOP IS 3 AND ALL LAYERS  IN ROW           40  AND COLUMN           76  ARE INACTIVE.
 UNSATURATED FLOW WILL NOT BE ADDED TO ANY LAYER-- SOME WATER MAY FLOW PAST LOWEST LAYER
                                                   Max.-Head-Change                         Max.-Flux-Residual
  Residual-Control   Outer-Iter.   Inner-Iter.     Column Row Layer    Maximum-Head-Change  Column Row Layer    Maximum-Flux-Residual          L2-NORM 
          0                 1           5            62   31     1       0.6344128031E+00      39   59    1         0.3339952239E+02      0.2452174340E+03
          0                 2           5            40   29     1       0.8916981827E+00      40   29    1         0.1535379038E+02      0.5782342513E+02
          0                 3           2            64   38     1       0.7969171104E-02      64   38    1         0.1123639494E+02      0.2336790606E+02
          0                 4           2            63   38     1       0.7848212236E-02      63   38    1         0.1108419735E+02      0.1710907800E+02
          0                 5           2            64   38     1       0.3316243012E-02      64   38    1         0.4699317326E+01      0.6443463148E+01
          0                 6           1            64   38     1       0.8989495577E-03      64   38    1         0.1278046163E+01      0.1984202668E+01

    ------------------------------------------------
       NWT REQUIRED            6 OUTER ITERATIONS 
       AND A TOTAL OF         17 INNER ITERATIONS.
    ------------------------------------------------

 NO OUTPUT CONTROL FOR STRESS PERIOD    5   TIME STEP    5
 ***WARNING***NUZTOP IS 3 AND ALL LAYERS  IN ROW           39  AND COLUMN           76  ARE INACTIVE.
 UNSATURATED FLOW WILL NOT BE ADDED TO ANY LAYER-- SOME WATER MAY FLOW PAST LOWEST LAYER
 ***WARNING***NUZTOP IS 3 AND ALL LAYERS  IN ROW           40  AND COLUMN           76  ARE INACTIVE.
 UNSATURATED FLOW WILL NOT BE ADDED TO ANY LAYER-- SOME WATER MAY FLOW PAST LOWEST LAYER
                                                   Max.-Head-Change                         Max.-Flux-Residual
  Residual-Control   Outer-Iter.   Inner-Iter.     Column Row Layer    Maximum-Head-Change  Column Row Layer    Maximum-Flux-Residual          L2-NORM 
          0                 1           5            37   64     1       0.6927945813E+00      39   59    1         0.3816920071E+02      0.2578669188E+03
          0                 2           4            66   50     1       0.1239394549E+01      66   50    1         0.2061682227E+02      0.5206687979E+02
          0                 3           2            47   21     1       0.3323514487E-02      47   21    1         0.2454964479E+01      0.1637483686E+02
          0                 4           2             2   58     1       0.1602148236E-02      63   38    1         0.1163788508E+01      0.6619651838E+01
          0                 5           1             2   58     1       0.9456640346E-03       2   58    1         0.6166115087E+00      0.2889977427E+01

    ------------------------------------------------
       NWT REQUIRED            5 OUTER ITERATIONS 
       AND A TOTAL OF         14 INNER ITERATIONS.
    ------------------------------------------------

 NO OUTPUT CONTROL FOR STRESS PERIOD    5   TIME STEP    6
 ***WARNING***NUZTOP IS 3 AND ALL LAYERS  IN ROW           39  AND COLUMN           76  ARE INACTIVE.
 UNSATURATED FLOW WILL NOT BE ADDED TO ANY LAYER-- SOME WATER MAY FLOW PAST LOWEST LAYER
 ***WARNING***NUZTOP IS 3 AND ALL LAYERS  IN ROW           40  AND COLUMN           76  ARE INACTIVE.
 UNSATURATED FLOW WILL NOT BE ADDED TO ANY LAYER-- SOME WATER MAY FLOW PAST LOWEST LAYER
                                                   Max.-Head-Change                         Max.-Flux-Residual
  Residual-Control   Outer-Iter.   Inner-Iter.     Column Row Layer    Maximum-Head-Change  Column Row Layer    Maximum-Flux-Residual          L2-NORM 
          0                 1           5            62   31     1      -0.5833232537E+00      39   59    1         0.3924407471E+02      0.2518785474E+03
          0                 2           4            66   48     1       0.1124804073E+01      67   17    1         0.2080363882E+02      0.5805518191E+02
          0                 3           3            67   48     1       0.1453226947E-01      64   38    1        -0.8864693903E+01      0.2062814849E+02
          0                 4           2            64   38     1      -0.5374368635E-02      64   38    1        -0.7577600793E+01      0.1251122689E+02
          0                 5           2            64   38     1      -0.2210554326E-02      64   38    1        -0.3133566993E+01      0.4753556266E+01
          0                 6           1            64   38     1      -0.5901504051E-03      64   38    1        -0.8392351343E+00      0.1652686899E+01

    ------------------------------------------------
       NWT REQUIRED            6 OUTER ITERATIONS 
       AND A TOTAL OF         17 INNER ITERATIONS.
    ------------------------------------------------

 NO OUTPUT CONTROL FOR STRESS PERIOD    5   TIME STEP    7
 ***WARNING***NUZTOP IS 3 AND ALL LAYERS  IN ROW           39  AND COLUMN           76  ARE INACTIVE.
 UNSATURATED FLOW WILL NOT BE ADDED TO ANY LAYER-- SOME WATER MAY FLOW PAST LOWEST LAYER
 ***WARNING***NUZTOP IS 3 AND ALL LAYERS  IN ROW           40  AND COLUMN           76  ARE INACTIVE.
 UNSATURATED FLOW WILL NOT BE ADDED TO ANY LAYER-- SOME WATER MAY FLOW PAST LOWEST LAYER
                                                   Max.-Head-Change                         Max.-Flux-Residual
  Residual-Control   Outer-Iter.   Inner-Iter.     Column Row Layer    Maximum-Head-Change  Column Row Layer    Maximum-Flux-Residual          L2-NORM 
          0                 1           6            62   31     1       0.9511064775E+00      39   59    1         0.3467556171E+02      0.2543363186E+03
          0                 2           4            26   32     1       0.7628921885E+00      66   24    1         0.2155240131E+02      0.6190096239E+02
          0                 3           2            64   38     1       0.9502082534E-02      64   38    1         0.1341009913E+02      0.2618759648E+02
          0                 4           2            64   38     1       0.7879140677E-02      64   38    1         0.1110791775E+02      0.1719470426E+02
          0                 5           2            64   38     1       0.3202150316E-02      64   38    1         0.4538765036E+01      0.6302735268E+01
          0                 6           1            64   38     1       0.8464831842E-03      64   38    1         0.1203642524E+01      0.1967430838E+01

    ------------------------------------------------
       NWT REQUIRED            6 OUTER ITERATIONS 
       AND A TOTAL OF         17 INNER ITERATIONS.
    ------------------------------------------------

 NO OUTPUT CONTROL FOR STRESS PERIOD    5   TIME STEP    8
 ***WARNING***NUZTOP IS 3 AND ALL LAYERS  IN ROW           39  AND COLUMN           76  ARE INACTIVE.
 UNSATURATED FLOW WILL NOT BE ADDED TO ANY LAYER-- SOME WATER MAY FLOW PAST LOWEST LAYER
 ***WARNING***NUZTOP IS 3 AND ALL LAYERS  IN ROW           40  AND COLUMN           76  ARE INACTIVE.
 UNSATURATED FLOW WILL NOT BE ADDED TO ANY LAYER-- SOME WATER MAY FLOW PAST LOWEST LAYER
                                                   Max.-Head-Change                         Max.-Flux-Residual
  Residual-Control   Outer-Iter.   Inner-Iter.     Column Row Layer    Maximum-Head-Change  Column Row Layer    Maximum-Flux-Residual          L2-NORM 
          0                 1           5            51   55     1       0.9632020108E+00      39   59    1         0.3948166351E+02      0.2618640971E+03
          0                 2           4            69   48     1       0.1645747631E+01      46   42    1         0.4091239730E+02      0.6535106426E+02
          0                 3           3            68   48     1       0.8892392492E-02      64   38    1        -0.5639737723E+01      0.1841211009E+02
          0                 4           2            64   38     1      -0.2972826098E-02      64   38    1        -0.4193727235E+01      0.8754962197E+01
          0                 5           2            64   38     1      -0.1163854751E-02      64   38    1        -0.1649725454E+01      0.3487968905E+01
          0                 6           1             2   58     1       0.5454250227E-03      64   38    1        -0.4304723769E+00      0.1454864667E+01

    ------------------------------------------------
       NWT REQUIRED            6 OUTER ITERATIONS 
       AND A TOTAL OF         17 INNER ITERATIONS.
    ------------------------------------------------

 NO OUTPUT CONTROL FOR STRESS PERIOD    5   TIME STEP    9
 ***WARNING***NUZTOP IS 3 AND ALL LAYERS  IN ROW           39  AND COLUMN           76  ARE INACTIVE.
 UNSATURATED FLOW WILL NOT BE ADDED TO ANY LAYER-- SOME WATER MAY FLOW PAST LOWEST LAYER
 ***WARNING***NUZTOP IS 3 AND ALL LAYERS  IN ROW           40  AND COLUMN           76  ARE INACTIVE.
 UNSATURATED FLOW WILL NOT BE ADDED TO ANY LAYER-- SOME WATER MAY FLOW PAST LOWEST LAYER
                                                   Max.-Head-Change                         Max.-Flux-Residual
  Residual-Control   Outer-Iter.   Inner-Iter.     Column Row Layer    Maximum-Head-Change  Column Row Layer    Maximum-Flux-Residual          L2-NORM 
          0                 1           5            69   48     1       0.1275043143E+01      46   42    1         0.4988120722E+02      0.2530591682E+03
          0                 2           4            39   30     1       0.6968210375E+00      39   30    1         0.1135951792E+02      0.4835544232E+02
          0                 3           2            40   30     1       0.7305718576E-02      64   38    1        -0.2257064167E+01      0.1641019996E+02
          0                 4           2            63   38     1      -0.1693262091E-02      63   38    1        -0.2393466665E+01      0.7222220905E+01
          0                 5           1             2   58     1       0.9002024904E-03      64   38    1        -0.1026680852E+01      0.3064647754E+01

    ------------------------------------------------
       NWT REQUIRED            5 OUTER ITERATIONS 
       AND A TOTAL OF         14 INNER ITERATIONS.
    ------------------------------------------------

 NO OUTPUT CONTROL FOR STRESS PERIOD    5   TIME STEP   10
 ***WARNING***NUZTOP IS 3 AND ALL LAYERS  IN ROW           39  AND COLUMN           76  ARE INACTIVE.
 UNSATURATED FLOW WILL NOT BE ADDED TO ANY LAYER-- SOME WATER MAY FLOW PAST LOWEST LAYER
 ***WARNING***NUZTOP IS 3 AND ALL LAYERS  IN ROW           40  AND COLUMN           76  ARE INACTIVE.
 UNSATURATED FLOW WILL NOT BE ADDED TO ANY LAYER-- SOME WATER MAY FLOW PAST LOWEST LAYER
                                                   Max.-Head-Change                         Max.-Flux-Residual
  Residual-Control   Outer-Iter.   Inner-Iter.     Column Row Layer    Maximum-Head-Change  Column Row Layer    Maximum-Flux-Residual          L2-NORM 
          0                 1           5            62   31     1      -0.2623865431E+00      46   42    1         0.4530778373E+02      0.2421500689E+03
          0                 2           4            57   34     1       0.4978815193E+00      36   63    1         0.7607820277E+01      0.4747981200E+02
          0                 3           2            57   34     1      -0.7690987970E-02      64   38    1        -0.4295076759E+01      0.1696068941E+02
          0                 4           2            63   38     1      -0.3067215237E-02      63   38    1        -0.4333893697E+01      0.8815093382E+01
          0                 5           2            64   38     1      -0.1309654403E-02      64   38    1        -0.1856196308E+01      0.3600122338E+01
          0                 6           1             2   58     1       0.5060399253E-03      64   38    1        -0.5095899733E+00      0.1460244744E+01

    ------------------------------------------------
       NWT REQUIRED            6 OUTER ITERATIONS 
       AND A TOTAL OF         16 INNER ITERATIONS.
    ------------------------------------------------

 NO OUTPUT CONTROL FOR STRESS PERIOD    5   TIME STEP   11
 ***WARNING***NUZTOP IS 3 AND ALL LAYERS  IN ROW           39  AND COLUMN           76  ARE INACTIVE.
 UNSATURATED FLOW WILL NOT BE ADDED TO ANY LAYER-- SOME WATER MAY FLOW PAST LOWEST LAYER
 ***WARNING***NUZTOP IS 3 AND ALL LAYERS  IN ROW           40  AND COLUMN           76  ARE INACTIVE.
 UNSATURATED FLOW WILL NOT BE ADDED TO ANY LAYER-- SOME WATER MAY FLOW PAST LOWEST LAYER
                                                   Max.-Head-Change                         Max.-Flux-Residual
  Residual-Control   Outer-Iter.   Inner-Iter.     Column Row Layer    Maximum-Head-Change  Column Row Layer    Maximum-Flux-Residual          L2-NORM 
          0                 1           6            62   31     1      -0.1431382694E+01      46   42    1         0.3783722661E+02      0.2332768490E+03
          0                 2           3            62   32     1      -0.3144621018E-01      63   38    1        -0.3278669168E+02      0.7995291048E+02
          0                 3           3            64   38     1      -0.1742663148E-01      64   38    1        -0.2457988027E+02      0.3993752485E+02
          0                 4           3            63   38     1      -0.1817233691E-01      63   38    1        -0.2567448019E+02      0.3703148642E+02
          0                 5           2            64   38     1      -0.7851462469E-02      64   38    1        -0.1112434648E+02      0.1403387858E+02
          0                 6           2            64   38     1      -0.2187058751E-02      64   38    1        -0.3108651411E+01      0.3791706798E+01
          0                 7           1            64   38     1      -0.4681069795E-03      64   38    1        -0.6666030548E+00      0.9871649722E+00

    ------------------------------------------------
       NWT REQUIRED            7 OUTER ITERATIONS 
       AND A TOTAL OF         20 INNER ITERATIONS.
    ------------------------------------------------

 NO OUTPUT CONTROL FOR STRESS PERIOD    5   TIME STEP   12
 ***WARNING***NUZTOP IS 3 AND ALL LAYERS  IN ROW           39  AND COLUMN           76  ARE INACTIVE.
 UNSATURATED FLOW WILL NOT BE ADDED TO ANY LAYER-- SOME WATER MAY FLOW PAST LOWEST LAYER
 ***WARNING***NUZTOP IS 3 AND ALL LAYERS  IN ROW           40  AND COLUMN           76  ARE INACTIVE.
 UNSATURATED FLOW WILL NOT BE ADDED TO ANY LAYER-- SOME WATER MAY FLOW PAST LOWEST LAYER
                                                   Max.-Head-Change                         Max.-Flux-Residual
  Residual-Control   Outer-Iter.   Inner-Iter.     Column Row Layer    Maximum-Head-Change  Column Row Layer    Maximum-Flux-Residual          L2-NORM 
          0                 1           5            42   29     2      -0.3783196560E+00      46   42    1         0.2085534674E+02      0.1818097782E+03
          0                 2           3            24   33     1      -0.1970302683E-01      42   28    1         0.4564371466E+01      0.4272357991E+02
          0                 3           2             8   39     1      -0.3027356011E-02       8   39    1        -0.1975684882E+01      0.1510087526E+02
          0                 4           2             8   39     1      -0.1502440306E-02       8   39    1        -0.9805121768E+00      0.6041364564E+01
          0                 5           1             8   39     1      -0.7456766539E-03       8   39    1        -0.4866197637E+00      0.2673501857E+01

    ------------------------------------------------
       NWT REQUIRED            5 OUTER ITERATIONS 
       AND A TOTAL OF         13 INNER ITERATIONS.
    ------------------------------------------------

 NO OUTPUT CONTROL FOR STRESS PERIOD    5   TIME STEP   13
 ***WARNING***NUZTOP IS 3 AND ALL LAYERS  IN ROW           39  AND COLUMN           76  ARE INACTIVE.
 UNSATURATED FLOW WILL NOT BE ADDED TO ANY LAYER-- SOME WATER MAY FLOW PAST LOWEST LAYER
 ***WARNING***NUZTOP IS 3 AND ALL LAYERS  IN ROW           40  AND COLUMN           76  ARE INACTIVE.
 UNSATURATED FLOW WILL NOT BE ADDED TO ANY LAYER-- SOME WATER MAY FLOW PAST LOWEST LAYER
                                                   Max.-Head-Change                         Max.-Flux-Residual
  Residual-Control   Outer-Iter.   Inner-Iter.     Column Row Layer    Maximum-Head-Change  Column Row Layer    Maximum-Flux-Residual          L2-NORM 
          0                 1           5            62   31     1       0.2715321846E+00      46   42    1         0.2066231466E+02      0.1811894082E+03
          0                 2           4            42   28     1       0.1205299171E+00      66   24    1         0.6803651894E+01      0.4385703107E+02
          0                 3           2            64   38     1       0.3339119145E-02      64   38    1         0.4707700001E+01      0.1667472310E+02
          0                 4           2            64   38     1       0.3153207710E-02      63   38    1         0.4446428012E+01      0.8834274766E+01
          0                 5           2            64   38     1       0.1284975818E-02      64   38    1         0.1821882267E+01      0.3521873218E+01
          0                 6           1             4   48     1      -0.4017316305E-03      64   38    1         0.4822399532E+00      0.1413121661E+01

    ------------------------------------------------
       NWT REQUIRED            6 OUTER ITERATIONS 
       AND A TOTAL OF         16 INNER ITERATIONS.
    ------------------------------------------------

 NO OUTPUT CONTROL FOR STRESS PERIOD    5   TIME STEP   14
 ***WARNING***NUZTOP IS 3 AND ALL LAYERS  IN ROW           39  AND COLUMN           76  ARE INACTIVE.
 UNSATURATED FLOW WILL NOT BE ADDED TO ANY LAYER-- SOME WATER MAY FLOW PAST LOWEST LAYER
 ***WARNING***NUZTOP IS 3 AND ALL LAYERS  IN ROW           40  AND COLUMN           76  ARE INACTIVE.
 UNSATURATED FLOW WILL NOT BE ADDED TO ANY LAYER-- SOME WATER MAY FLOW PAST LOWEST LAYER
                                                   Max.-Head-Change                         Max.-Flux-Residual
  Residual-Control   Outer-Iter.   Inner-Iter.     Column Row Layer    Maximum-Head-Change  Column Row Layer    Maximum-Flux-Residual          L2-NORM 
          0                 1           5            25   33     1       0.4876118689E+00      46   42    1         0.2339230139E+02      0.1907068220E+03
          0                 2           4            69   50     1       0.8018312606E+00      69   50    1         0.1427928405E+02      0.4887607543E+02
          0                 3           2            64   38     1       0.5347164463E-02      64   38    1         0.7537605220E+01      0.1909118995E+02
          0                 4           2            63   38     1       0.5916349706E-02      63   38    1         0.8359323918E+01      0.1335079104E+02
          0                 5           2            64   38     1       0.2490716643E-02      64   38    1         0.3529724552E+01      0.5154625199E+01
          0                 6           1            64   38     1       0.6814953872E-03      64   38    1         0.9689662914E+00      0.1726327172E+01

    ------------------------------------------------
       NWT REQUIRED            6 OUTER ITERATIONS 
       AND A TOTAL OF         16 INNER ITERATIONS.
    ------------------------------------------------

 NO OUTPUT CONTROL FOR STRESS PERIOD    5   TIME STEP   15
 ***WARNING***NUZTOP IS 3 AND ALL LAYERS  IN ROW           39  AND COLUMN           76  ARE INACTIVE.
 UNSATURATED FLOW WILL NOT BE ADDED TO ANY LAYER-- SOME WATER MAY FLOW PAST LOWEST LAYER
 ***WARNING***NUZTOP IS 3 AND ALL LAYERS  IN ROW           40  AND COLUMN           76  ARE INACTIVE.
 UNSATURATED FLOW WILL NOT BE ADDED TO ANY LAYER-- SOME WATER MAY FLOW PAST LOWEST LAYER
                                                   Max.-Head-Change                         Max.-Flux-Residual
  Residual-Control   Outer-Iter.   Inner-Iter.     Column Row Layer    Maximum-Head-Change  Column Row Layer    Maximum-Flux-Residual          L2-NORM 
          0                 1           6            23   38     1       0.7429902799E+00      46   42    1         0.2803797575E+02      0.2061273646E+03
          0                 2           3            37   29     1       0.1859343284E+00      66   24    1         0.1000928513E+02      0.4772244314E+02
          0                 3           2            64   38     1       0.5294235978E-02      64   38    1         0.7464241055E+01      0.1918578161E+02
          0                 4           2            63   38     1       0.6058023441E-02      63   38    1         0.8560444411E+01      0.1360131593E+02
          0                 5           2            64   38     1       0.2560597775E-02      64   38    1         0.3628345267E+01      0.5277249750E+01
          0                 6           1            64   38     1       0.7049109895E-03      64   38    1         0.1002159458E+01      0.1774588171E+01

    ------------------------------------------------
       NWT REQUIRED            6 OUTER ITERATIONS 
       AND A TOTAL OF         16 INNER ITERATIONS.
    ------------------------------------------------

 NO OUTPUT CONTROL FOR STRESS PERIOD    5   TIME STEP   16
 ***WARNING***NUZTOP IS 3 AND ALL LAYERS  IN ROW           39  AND COLUMN           76  ARE INACTIVE.
 UNSATURATED FLOW WILL NOT BE ADDED TO ANY LAYER-- SOME WATER MAY FLOW PAST LOWEST LAYER
 ***WARNING***NUZTOP IS 3 AND ALL LAYERS  IN ROW           40  AND COLUMN           76  ARE INACTIVE.
 UNSATURATED FLOW WILL NOT BE ADDED TO ANY LAYER-- SOME WATER MAY FLOW PAST LOWEST LAYER
                                                   Max.-Head-Change                         Max.-Flux-Residual
  Residual-Control   Outer-Iter.   Inner-Iter.     Column Row Layer    Maximum-Head-Change  Column Row Layer    Maximum-Flux-Residual          L2-NORM 
          0                 1           5            62   31     1      -0.1803493829E+00      46   42    1         0.3135946551E+02      0.2131180508E+03
          0                 2           3            37   30     1       0.1917812001E+00      46   42    1        -0.1296171333E+03      0.1881571398E+03
          0                 3           2            46   42     1      -0.4363856486E-02      46   42    1        -0.6066649995E+01      0.1804893958E+02
          0                 4           2            63   38     1      -0.3184165651E-02      63   38    1        -0.4499209442E+01      0.8825094951E+01
          0                 5           2            64   38     1      -0.1402355786E-02      64   38    1        -0.1985940070E+01      0.3686045666E+01
          0                 6           1             2   58     1       0.4337011637E-03      64   38    1        -0.5672244523E+00      0.1475382131E+01

    ------------------------------------------------
       NWT REQUIRED            6 OUTER ITERATIONS 
       AND A TOTAL OF         15 INNER ITERATIONS.
    ------------------------------------------------

 NO OUTPUT CONTROL FOR STRESS PERIOD    5   TIME STEP   17
 ***WARNING***NUZTOP IS 3 AND ALL LAYERS  IN ROW           39  AND COLUMN           76  ARE INACTIVE.
 UNSATURATED FLOW WILL NOT BE ADDED TO ANY LAYER-- SOME WATER MAY FLOW PAST LOWEST LAYER
 ***WARNING***NUZTOP IS 3 AND ALL LAYERS  IN ROW           40  AND COLUMN           76  ARE INACTIVE.
 UNSATURATED FLOW WILL NOT BE ADDED TO ANY LAYER-- SOME WATER MAY FLOW PAST LOWEST LAYER
                                                   Max.-Head-Change                         Max.-Flux-Residual
  Residual-Control   Outer-Iter.   Inner-Iter.     Column Row Layer    Maximum-Head-Change  Column Row Layer    Maximum-Flux-Residual          L2-NORM 
          0                 1           5            37   30     1       0.1353380942E+00      46   43    1         0.1302098342E+03      0.2567509541E+03
          0                 2           3            67   57     1       0.6043709191E+00      67   57    1         0.7671183780E+01      0.4398617738E+02
          0                 3           2            67   58     1       0.5197566906E-02       6   48    1        -0.1963965068E+01      0.1543083519E+02
          0                 4           2            63   38     1      -0.1563916099E-02      63   38    1        -0.2211100717E+01      0.6843051634E+01
          0                 5           1             8   39     1      -0.7352754656E-03      64   38    1        -0.1005234461E+01      0.3005508660E+01

    ------------------------------------------------
       NWT REQUIRED            5 OUTER ITERATIONS 
       AND A TOTAL OF         13 INNER ITERATIONS.
    ------------------------------------------------

 NO OUTPUT CONTROL FOR STRESS PERIOD    5   TIME STEP   18
 ***WARNING***NUZTOP IS 3 AND ALL LAYERS  IN ROW           39  AND COLUMN           76  ARE INACTIVE.
 UNSATURATED FLOW WILL NOT BE ADDED TO ANY LAYER-- SOME WATER MAY FLOW PAST LOWEST LAYER
 ***WARNING***NUZTOP IS 3 AND ALL LAYERS  IN ROW           40  AND COLUMN           76  ARE INACTIVE.
 UNSATURATED FLOW WILL NOT BE ADDED TO ANY LAYER-- SOME WATER MAY FLOW PAST LOWEST LAYER
                                                   Max.-Head-Change                         Max.-Flux-Residual
  Residual-Control   Outer-Iter.   Inner-Iter.     Column Row Layer    Maximum-Head-Change  Column Row Layer    Maximum-Flux-Residual          L2-NORM 
          0                 1           6            25   35     1       0.9094104216E+00      46   43    1         0.1192393948E+03      0.2538736132E+03
          0                 2           2            62   32     1      -0.9614515049E-02      66   24    1         0.1329101682E+02      0.5059363556E+02
          0                 3           2            64   38     1       0.7024013721E-02      64   38    1         0.9904395271E+01      0.2144240315E+02
          0                 4           2            63   38     1       0.7338997853E-02      63   38    1         0.1036763150E+02      0.1601252146E+02
          0                 5           2            64   38     1       0.3096855588E-02      64   38    1         0.4388537613E+01      0.6076313211E+01
          0                 6           1            64   38     1       0.8419058465E-03      64   38    1         0.1197031373E+01      0.1913417129E+01

    ------------------------------------------------
       NWT REQUIRED            6 OUTER ITERATIONS 
       AND A TOTAL OF         15 INNER ITERATIONS.
    ------------------------------------------------

 NO OUTPUT CONTROL FOR STRESS PERIOD    5   TIME STEP   19
 ***WARNING***NUZTOP IS 3 AND ALL LAYERS  IN ROW           39  AND COLUMN           76  ARE INACTIVE.
 UNSATURATED FLOW WILL NOT BE ADDED TO ANY LAYER-- SOME WATER MAY FLOW PAST LOWEST LAYER
 ***WARNING***NUZTOP IS 3 AND ALL LAYERS  IN ROW           40  AND COLUMN           76  ARE INACTIVE.
 UNSATURATED FLOW WILL NOT BE ADDED TO ANY LAYER-- SOME WATER MAY FLOW PAST LOWEST LAYER
                                                   Max.-Head-Change                         Max.-Flux-Residual
  Residual-Control   Outer-Iter.   Inner-Iter.     Column Row Layer    Maximum-Head-Change  Column Row Layer    Maximum-Flux-Residual          L2-NORM 
          0                 1           6            25   33     1       0.7323541859E+00      46   43    1         0.1167835411E+03      0.2699572931E+03
          0                 2           2            61   34     1      -0.1113551099E-01      63   38    1         0.1300129784E+02      0.5171897322E+02
          0                 3           2            64   38     1       0.6669740089E-02      64   38    1         0.9406250732E+01      0.2111194895E+02
          0                 4           2            63   38     1       0.6839518066E-02      63   38    1         0.9661425512E+01      0.1514676021E+02
          0                 5           2            64   38     1       0.2875172417E-02      64   38    1         0.4074360907E+01      0.5746808543E+01
          0                 6           1            64   38     1       0.7779397124E-03      64   38    1         0.1106062055E+01      0.1840000166E+01

    ------------------------------------------------
       NWT REQUIRED            6 OUTER ITERATIONS 
       AND A TOTAL OF         15 INNER ITERATIONS.
    ------------------------------------------------

 NO OUTPUT CONTROL FOR STRESS PERIOD    5   TIME STEP   20
 ***WARNING***NUZTOP IS 3 AND ALL LAYERS  IN ROW           39  AND COLUMN           76  ARE INACTIVE.
 UNSATURATED FLOW WILL NOT BE ADDED TO ANY LAYER-- SOME WATER MAY FLOW PAST LOWEST LAYER
 ***WARNING***NUZTOP IS 3 AND ALL LAYERS  IN ROW           40  AND COLUMN           76  ARE INACTIVE.
 UNSATURATED FLOW WILL NOT BE ADDED TO ANY LAYER-- SOME WATER MAY FLOW PAST LOWEST LAYER
                                                   Max.-Head-Change                         Max.-Flux-Residual
  Residual-Control   Outer-Iter.   Inner-Iter.     Column Row Layer    Maximum-Head-Change  Column Row Layer    Maximum-Flux-Residual          L2-NORM 
          0                 1           5            26   33     1       0.4588641703E+00      46   43    1         0.1139710302E+03      0.2836424117E+03
          0                 2           4            62   29     1       0.7456475923E+00      62   29    1         0.1192907026E+02      0.5009054724E+02
          0                 3           2            47   21     1       0.3235468231E-02      64   38    1         0.3660739922E+01      0.1695460172E+02
          0                 4           2            64   38     1       0.2146008478E-02      64   38    1         0.3024263517E+01      0.7718908736E+01
          0                 5           1            64   38     1       0.8806441792E-03      64   38    1         0.1248362202E+01      0.3199658453E+01

    ------------------------------------------------
       NWT REQUIRED            5 OUTER ITERATIONS 
       AND A TOTAL OF         14 INNER ITERATIONS.
    ------------------------------------------------

 NO OUTPUT CONTROL FOR STRESS PERIOD    5   TIME STEP   21
 ***WARNING***NUZTOP IS 3 AND ALL LAYERS  IN ROW           39  AND COLUMN           76  ARE INACTIVE.
 UNSATURATED FLOW WILL NOT BE ADDED TO ANY LAYER-- SOME WATER MAY FLOW PAST LOWEST LAYER
 ***WARNING***NUZTOP IS 3 AND ALL LAYERS  IN ROW           40  AND COLUMN           76  ARE INACTIVE.
 UNSATURATED FLOW WILL NOT BE ADDED TO ANY LAYER-- SOME WATER MAY FLOW PAST LOWEST LAYER
                                                   Max.-Head-Change                         Max.-Flux-Residual
  Residual-Control   Outer-Iter.   Inner-Iter.     Column Row Layer    Maximum-Head-Change  Column Row Layer    Maximum-Flux-Residual          L2-NORM 
          0                 1           5            13   40     1       0.9948259170E+00      46   43    1         0.1071750671E+03      0.2834045430E+03
          0                 2           6            38   65     1       0.8482585242E+00      38   65    1         0.2268454099E+02      0.5234411898E+02
          0                 3           2             4   48     1      -0.3293243970E-02      47   21    1         0.2302573086E+01      0.1594207068E+02
          0                 4           2             4   48     1      -0.1692275347E-02       4   48    1        -0.1104479016E+01      0.6324322147E+01
          0                 5           1             4   48     1      -0.8697397875E-03       4   48    1        -0.5675543169E+00      0.2804108145E+01

    ------------------------------------------------
       NWT REQUIRED            5 OUTER ITERATIONS 
       AND A TOTAL OF         16 INNER ITERATIONS.
    ------------------------------------------------

 NO OUTPUT CONTROL FOR STRESS PERIOD    5   TIME STEP   22
 ***WARNING***NUZTOP IS 3 AND ALL LAYERS  IN ROW           39  AND COLUMN           76  ARE INACTIVE.
 UNSATURATED FLOW WILL NOT BE ADDED TO ANY LAYER-- SOME WATER MAY FLOW PAST LOWEST LAYER
 ***WARNING***NUZTOP IS 3 AND ALL LAYERS  IN ROW           40  AND COLUMN           76  ARE INACTIVE.
 UNSATURATED FLOW WILL NOT BE ADDED TO ANY LAYER-- SOME WATER MAY FLOW PAST LOWEST LAYER
                                                   Max.-Head-Change                         Max.-Flux-Residual
  Residual-Control   Outer-Iter.   Inner-Iter.     Column Row Layer    Maximum-Head-Change  Column Row Layer    Maximum-Flux-Residual          L2-NORM 
          0                 1           6            62   31     1      -0.6440215528E+00      46   43    1         0.9854758379E+02      0.2689228216E+03
          0                 2           2            63   38     1      -0.9416033877E-02      63   38    1        -0.1335950733E+02      0.5037598584E+02
          0                 3           2            64   38     1      -0.6781598826E-02      64   38    1        -0.9570076334E+01      0.2106987384E+02
          0                 4           2            63   38     1      -0.6470352997E-02      63   38    1        -0.9139483091E+01      0.1451567492E+02
          0                 5           2            64   38     1      -0.2740522418E-02      64   38    1        -0.3883868430E+01      0.5531149963E+01
          0                 6           1            64   38     1      -0.7436030514E-03      64   38    1        -0.1057292789E+01      0.1792179613E+01

    ------------------------------------------------
       NWT REQUIRED            6 OUTER ITERATIONS 
       AND A TOTAL OF         15 INNER ITERATIONS.
    ------------------------------------------------

 NO OUTPUT CONTROL FOR STRESS PERIOD    5   TIME STEP   23
 ***WARNING***NUZTOP IS 3 AND ALL LAYERS  IN ROW           39  AND COLUMN           76  ARE INACTIVE.
 UNSATURATED FLOW WILL NOT BE ADDED TO ANY LAYER-- SOME WATER MAY FLOW PAST LOWEST LAYER
 ***WARNING***NUZTOP IS 3 AND ALL LAYERS  IN ROW           40  AND COLUMN           76  ARE INACTIVE.
 UNSATURATED FLOW WILL NOT BE ADDED TO ANY LAYER-- SOME WATER MAY FLOW PAST LOWEST LAYER
                                                   Max.-Head-Change                         Max.-Flux-Residual
  Residual-Control   Outer-Iter.   Inner-Iter.     Column Row Layer    Maximum-Head-Change  Column Row Layer    Maximum-Flux-Residual          L2-NORM 
          0                 1           5            41   29     2      -0.1064593907E+00      46   43    1         0.8648364228E+02      0.2471134292E+03
          0                 2           4            47   24     1       0.7056660237E+00      47   24    1         0.1285131957E+02      0.4713802104E+02
          0                 3           3            47   23     1       0.8552629902E-02       4   48    1        -0.2136514178E+01      0.1558053393E+02
          0                 4           2             4   48     1      -0.1682026945E-02       4   48    1        -0.1097783885E+01      0.6328873439E+01
          0                 5           1             4   48     1      -0.8644752966E-03       4   48    1        -0.5641184674E+00      0.2789941400E+01

    ------------------------------------------------
       NWT REQUIRED            5 OUTER ITERATIONS 
       AND A TOTAL OF         15 INNER ITERATIONS.
    ------------------------------------------------

 NO OUTPUT CONTROL FOR STRESS PERIOD    5   TIME STEP   24
 ***WARNING***NUZTOP IS 3 AND ALL LAYERS  IN ROW           39  AND COLUMN           76  ARE INACTIVE.
 UNSATURATED FLOW WILL NOT BE ADDED TO ANY LAYER-- SOME WATER MAY FLOW PAST LOWEST LAYER
 ***WARNING***NUZTOP IS 3 AND ALL LAYERS  IN ROW           40  AND COLUMN           76  ARE INACTIVE.
 UNSATURATED FLOW WILL NOT BE ADDED TO ANY LAYER-- SOME WATER MAY FLOW PAST LOWEST LAYER
                                                   Max.-Head-Change                         Max.-Flux-Residual
  Residual-Control   Outer-Iter.   Inner-Iter.     Column Row Layer    Maximum-Head-Change  Column Row Layer    Maximum-Flux-Residual          L2-NORM 
          0                 1           5            62   31     1       0.3479496558E+00      46   43    1         0.8181792057E+02      0.2501659455E+03
          0                 2           2            47   21     1       0.7787884363E-02      63   38    1         0.8095653846E+01      0.4762427775E+02
          0                 3           2            64   38     1       0.4254497028E-02      64   38    1         0.5998515099E+01      0.1806292504E+02
          0                 4           2            63   38     1       0.4216435200E-02      63   38    1         0.5955119786E+01      0.1060091968E+02
          0                 5           2            64   38     1       0.1767869860E-02      64   38    1         0.2505332357E+01      0.4172729463E+01
          0                 6           1            64   38     1       0.4757075030E-03      64   38    1         0.6763926633E+00      0.1550123732E+01

    ------------------------------------------------
       NWT REQUIRED            6 OUTER ITERATIONS 
       AND A TOTAL OF         14 INNER ITERATIONS.
    ------------------------------------------------

 NO OUTPUT CONTROL FOR STRESS PERIOD    5   TIME STEP   25
 ***WARNING***NUZTOP IS 3 AND ALL LAYERS  IN ROW           39  AND COLUMN           76  ARE INACTIVE.
 UNSATURATED FLOW WILL NOT BE ADDED TO ANY LAYER-- SOME WATER MAY FLOW PAST LOWEST LAYER
 ***WARNING***NUZTOP IS 3 AND ALL LAYERS  IN ROW           40  AND COLUMN           76  ARE INACTIVE.
 UNSATURATED FLOW WILL NOT BE ADDED TO ANY LAYER-- SOME WATER MAY FLOW PAST LOWEST LAYER
                                                   Max.-Head-Change                         Max.-Flux-Residual
  Residual-Control   Outer-Iter.   Inner-Iter.     Column Row Layer    Maximum-Head-Change  Column Row Layer    Maximum-Flux-Residual          L2-NORM 
          0                 1           5            62   31     1      -0.3265912764E+00      46   43    1         0.7920097538E+02      0.2504360378E+03
          0                 2           4            12   41     1       0.3551743533E+00      63   38    1        -0.7910186891E+01      0.4679972868E+02
          0                 3           2            64   38     1      -0.4327069827E-02      64   38    1        -0.6103450519E+01      0.1801507478E+02
          0                 4           2            63   38     1      -0.4196553585E-02      63   38    1        -0.5927110780E+01      0.1056508433E+02
          0                 5           2            64   38     1      -0.1783894864E-02      64   38    1        -0.2527096931E+01      0.4187711328E+01
          0                 6           1            64   38     1      -0.4868921678E-03      64   38    1        -0.6918299250E+00      0.1553632572E+01

    ------------------------------------------------
       NWT REQUIRED            6 OUTER ITERATIONS 
       AND A TOTAL OF         16 INNER ITERATIONS.
    ------------------------------------------------

 NO OUTPUT CONTROL FOR STRESS PERIOD    5   TIME STEP   26
 ***WARNING***NUZTOP IS 3 AND ALL LAYERS  IN ROW           39  AND COLUMN           76  ARE INACTIVE.
 UNSATURATED FLOW WILL NOT BE ADDED TO ANY LAYER-- SOME WATER MAY FLOW PAST LOWEST LAYER
 ***WARNING***NUZTOP IS 3 AND ALL LAYERS  IN ROW           40  AND COLUMN           76  ARE INACTIVE.
 UNSATURATED FLOW WILL NOT BE ADDED TO ANY LAYER-- SOME WATER MAY FLOW PAST LOWEST LAYER
                                                   Max.-Head-Change                         Max.-Flux-Residual
  Residual-Control   Outer-Iter.   Inner-Iter.     Column Row Layer    Maximum-Head-Change  Column Row Layer    Maximum-Flux-Residual          L2-NORM 
          0                 1           6            12   41     1       0.5325060701E+00      46   43    1         0.7168286283E+02      0.2481910962E+03
          0                 2           6            66   47     1       0.1069688145E+01      46   43    1        -0.6726819783E+02      0.1068598383E+03
          0                 3           3            46   42     1      -0.1813311053E-01      46   42    1        -0.2575505446E+02      0.3316212890E+02
          0                 4           2            63   38     1       0.5903598928E-02      63   38    1         0.8337095053E+01      0.1426677788E+02
          0                 5           2            64   38     1       0.2472421341E-02      64   38    1         0.3503946296E+01      0.5212541282E+01
          0                 6           1            64   38     1       0.6636809028E-03      64   38    1         0.9436594485E+00      0.1751176885E+01

    ------------------------------------------------
       NWT REQUIRED            6 OUTER ITERATIONS 
       AND A TOTAL OF         20 INNER ITERATIONS.
    ------------------------------------------------

 NO OUTPUT CONTROL FOR STRESS PERIOD    5   TIME STEP   27
 ***WARNING***NUZTOP IS 3 AND ALL LAYERS  IN ROW           39  AND COLUMN           76  ARE INACTIVE.
 UNSATURATED FLOW WILL NOT BE ADDED TO ANY LAYER-- SOME WATER MAY FLOW PAST LOWEST LAYER
 ***WARNING***NUZTOP IS 3 AND ALL LAYERS  IN ROW           40  AND COLUMN           76  ARE INACTIVE.
 UNSATURATED FLOW WILL NOT BE ADDED TO ANY LAYER-- SOME WATER MAY FLOW PAST LOWEST LAYER
                                                   Max.-Head-Change                         Max.-Flux-Residual
  Residual-Control   Outer-Iter.   Inner-Iter.     Column Row Layer    Maximum-Head-Change  Column Row Layer    Maximum-Flux-Residual          L2-NORM 
          0                 1           5            40   64     1       0.3752627168E+00      46   43    1         0.3598988286E+02      0.2440914041E+03
          0                 2           3            60   53     1       0.2398025613E+00      46   42    1         0.1672777244E+02      0.4922335008E+02
          0                 3           2             4   48     1      -0.3234203794E-02      64   38    1        -0.3331311368E+01      0.1662260811E+02
          0                 4           2            64   38     1      -0.1987674571E-02      64   38    1        -0.2802698461E+01      0.7559258885E+01
          0                 5           1             4   48     1      -0.8542074129E-03      64   38    1        -0.1148407769E+01      0.3195411967E+01

    ------------------------------------------------
       NWT REQUIRED            5 OUTER ITERATIONS 
       AND A TOTAL OF         13 INNER ITERATIONS.
    ------------------------------------------------

 NO OUTPUT CONTROL FOR STRESS PERIOD    5   TIME STEP   28
 ***WARNING***NUZTOP IS 3 AND ALL LAYERS  IN ROW           39  AND COLUMN           76  ARE INACTIVE.
 UNSATURATED FLOW WILL NOT BE ADDED TO ANY LAYER-- SOME WATER MAY FLOW PAST LOWEST LAYER
 ***WARNING***NUZTOP IS 3 AND ALL LAYERS  IN ROW           40  AND COLUMN           76  ARE INACTIVE.
 UNSATURATED FLOW WILL NOT BE ADDED TO ANY LAYER-- SOME WATER MAY FLOW PAST LOWEST LAYER
                                                   Max.-Head-Change                         Max.-Flux-Residual
  Residual-Control   Outer-Iter.   Inner-Iter.     Column Row Layer    Maximum-Head-Change  Column Row Layer    Maximum-Flux-Residual          L2-NORM 
          0                 1           6            50   22     1       0.6506560722E+00      40   65    1         0.3288271550E+02      0.2415270150E+03
          0                 2           4            62   52     1       0.3505797779E+00      46   42    1         0.1185370156E+02      0.4887140862E+02
          0                 3           2             4   48     1      -0.3225240240E-02      64   38    1         0.2574919972E+01      0.1648585788E+02
          0                 4           2            63   38     1       0.1744727790E-02      63   38    1         0.2463501170E+01      0.7376232478E+01
          0                 5           1             4   48     1      -0.8518495038E-03      64   38    1         0.1028625792E+01      0.3149975827E+01

    ------------------------------------------------
       NWT REQUIRED            5 OUTER ITERATIONS 
       AND A TOTAL OF         15 INNER ITERATIONS.
    ------------------------------------------------

 NO OUTPUT CONTROL FOR STRESS PERIOD    5   TIME STEP   29
 ***WARNING***NUZTOP IS 3 AND ALL LAYERS  IN ROW           39  AND COLUMN           76  ARE INACTIVE.
 UNSATURATED FLOW WILL NOT BE ADDED TO ANY LAYER-- SOME WATER MAY FLOW PAST LOWEST LAYER
 ***WARNING***NUZTOP IS 3 AND ALL LAYERS  IN ROW           40  AND COLUMN           76  ARE INACTIVE.
 UNSATURATED FLOW WILL NOT BE ADDED TO ANY LAYER-- SOME WATER MAY FLOW PAST LOWEST LAYER
                                                   Max.-Head-Change                         Max.-Flux-Residual
  Residual-Control   Outer-Iter.   Inner-Iter.     Column Row Layer    Maximum-Head-Change  Column Row Layer    Maximum-Flux-Residual          L2-NORM 
          0                 1           6            62   31     1      -0.5216263973E+00      46   42    1         0.3685985689E+02      0.2377791554E+03
          0                 2           4            58   11     1       0.4464591284E+00      58   11    1         0.1371001967E+02      0.5018364717E+02
          0                 3           2            64   38     1      -0.6351774195E-02      64   38    1        -0.8960498123E+01      0.2061856008E+02
          0                 4           2            63   38     1      -0.6309022468E-02      63   38    1        -0.8912569825E+01      0.1424190171E+02
          0                 5           2            64   38     1      -0.2679839100E-02      64   38    1        -0.3797638532E+01      0.5491506515E+01
          0                 6           1            64   38     1      -0.7305797046E-03      64   38    1        -0.1038741251E+01      0.1817426809E+01

    ------------------------------------------------
       NWT REQUIRED            6 OUTER ITERATIONS 
       AND A TOTAL OF         17 INNER ITERATIONS.
    ------------------------------------------------

 NO OUTPUT CONTROL FOR STRESS PERIOD    5   TIME STEP   30
 ***WARNING***NUZTOP IS 3 AND ALL LAYERS  IN ROW           39  AND COLUMN           76  ARE INACTIVE.
 UNSATURATED FLOW WILL NOT BE ADDED TO ANY LAYER-- SOME WATER MAY FLOW PAST LOWEST LAYER
 ***WARNING***NUZTOP IS 3 AND ALL LAYERS  IN ROW           40  AND COLUMN           76  ARE INACTIVE.
 UNSATURATED FLOW WILL NOT BE ADDED TO ANY LAYER-- SOME WATER MAY FLOW PAST LOWEST LAYER
                                                   Max.-Head-Change                         Max.-Flux-Residual
  Residual-Control   Outer-Iter.   Inner-Iter.     Column Row Layer    Maximum-Head-Change  Column Row Layer    Maximum-Flux-Residual          L2-NORM 
          0                 1           7            68   48     1      -0.1568084230E+01      46   42    1         0.3224976041E+02      0.2253264596E+03
          0                 2           4            51   38     1       0.1803531876E+00      55   65    1         0.7840119203E+02      0.1254183857E+03
          0                 3           3            64   38     1      -0.1714731125E-01      64   38    1        -0.2418244570E+02      0.3947088104E+02
          0                 4           3            63   38     1      -0.1806633795E-01      63   38    1        -0.2552535732E+02      0.3678893595E+02
          0                 5           2            64   38     1      -0.7797460152E-02      64   38    1        -0.1104770974E+02      0.1396137336E+02
          0                 6           2            64   38     1      -0.2171180199E-02      64   38    1        -0.3086032230E+01      0.3791474199E+01
          0                 7           1            64   38     1      -0.4648106355E-03      64   38    1        -0.6618964112E+00      0.1006739461E+01

    ------------------------------------------------
       NWT REQUIRED            7 OUTER ITERATIONS 
       AND A TOTAL OF         22 INNER ITERATIONS.
    ------------------------------------------------

 NO OUTPUT CONTROL FOR STRESS PERIOD    5   TIME STEP   31



 STREAM LISTING     PERIOD      5   STEP       31

 LAYER ROW COL. STREAM  RCH.   FLOW INTO    STREAM     FLOW OUT OF   OVRLND.    DIRECT     STREAM      STREAM      STREAM     STREAM  STREAMBED   FLOW TO   CHNG. UNSAT. 
                SEG.NO.  NO.   STRM. RCH.    LOSS       STRM. RCH.   RUNOFF     PRECIP       ET         HEAD        DEPTH      WIDTH  CONDCTNC.   WAT. TAB.

   1   18   62     1     1    0.0000E+00 -8.2409E+00   9.1111E+00  8.702E-01  0.000E+00  0.000E+00  2.07300E+03  4.401E-04  3.000E+00  1.909E+03  0.000E+00  0.000E+00
   1   19   63     1     2    9.1111E+00 -5.1559E+01   6.1541E+01  8.702E-01  0.000E+00  0.000E+00  2.06300E+03  1.514E-03  3.000E+00  1.909E+03  0.000E+00  0.000E+00
   1   20   64     1     3    6.1541E+01 -8.0337E+01   1.4275E+02  8.702E-01  0.000E+00  0.000E+00  2.05400E+03  3.133E-03  3.000E+00  1.630E+03  0.000E+00  0.000E+00
   1   21   64     1     4    1.4275E+02 -8.5085E+01   2.2870E+02  8.702E-01  0.000E+00  0.000E+00  2.05101E+03  5.521E-03  3.000E+00  1.630E+03  0.000E+00  0.000E+00
   1   22   65     1     5    2.2870E+02 -1.2849E+01   2.4242E+02  8.702E-01  0.000E+00  0.000E+00  2.04801E+03  5.424E-03  3.000E+00  9.546E+02  0.000E+00  0.000E+00
   1   20   66     2     1    0.0000E+00 -5.0728E+01   5.0728E+01  0.000E+00  0.000E+00  0.000E+00  2.05300E+03  1.754E-03  3.000E+00  1.909E+03  0.000E+00  0.000E+00
   1   21   65     2     2    5.0728E+01  2.2548E+00   4.8473E+01  0.000E+00  0.000E+00  0.000E+00  2.05100E+03  2.642E-03  3.000E+00  1.630E+03  0.000E+00  0.000E+00
   1   22   65     2     3    4.8473E+01 -1.1379E+01   5.9852E+01  0.000E+00  0.000E+00  0.000E+00  2.04800E+03  2.026E-03  3.000E+00  6.750E+02  0.000E+00  0.000E+00
   1   22   65     3     1    3.0227E+02 -8.8795E+00   3.1115E+02  0.000E+00  0.000E+00  0.000E+00  2.04801E+03  5.729E-03  3.000E+00  6.750E+02  0.000E+00  0.000E+00
   1   23   65     3     2    3.1115E+02 -9.5186E+01   4.0634E+02  0.000E+00  0.000E+00  0.000E+00  2.04501E+03  1.009E-02  3.000E+00  1.630E+03  0.000E+00  0.000E+00
   1   24   66     3     3    4.0634E+02 -2.4251E+01   4.3059E+02  0.000E+00  0.000E+00  0.000E+00  2.04539E+03  3.856E-01  3.000E+00  1.909E+03  0.000E+00  0.000E+00
   1   25   67     3     4    4.3059E+02  1.0117E+01   4.2047E+02  0.000E+00  0.000E+00  0.000E+00  2.04501E+03  1.173E-02  3.000E+00  1.909E+03  0.000E+00  0.000E+00
   1   26   68     3     5    4.2047E+02 -1.4416E+01   4.3489E+02  0.000E+00  0.000E+00  0.000E+00  2.04201E+03  1.029E-02  3.000E+00  1.630E+03  0.000E+00  0.000E+00
   1   27   68     3     6    4.3489E+02  8.0259E+01   3.5463E+02  0.000E+00  0.000E+00  0.000E+00  2.04101E+03  8.683E-03  3.000E+00  1.630E+03  0.000E+00  0.000E+00
   1   28   69     3     7    3.5463E+02  9.7776E+01   2.5685E+02  0.000E+00  0.000E+00  0.000E+00  2.03601E+03  6.051E-03  3.000E+00  1.630E+03  9.825E+01 -4.706E-01
   1   29   69     3     8    2.5685E+02  4.4489E+01   2.1237E+02  0.000E+00  0.000E+00  0.000E+00  2.02900E+03  4.763E-03  3.000E+00  1.350E+03  0.000E+00  0.000E+00
   1   30   69     3     9    2.1237E+02  9.7051E+00   2.0266E+02  0.000E+00  0.000E+00  0.000E+00  2.02300E+03  4.247E-03  3.000E+00  1.630E+03  0.000E+00  0.000E+00
   1   31   70     3    10    2.0266E+02 -1.1241E+02   3.1507E+02  0.000E+00  0.000E+00  0.000E+00  2.01100E+03  4.849E-03  3.000E+00  1.630E+03  0.000E+00  0.000E+00
   1   32   70     3    11    3.1507E+02 -2.0901E+02   5.2408E+02  0.000E+00  0.000E+00  0.000E+00  2.00501E+03  7.809E-03  3.000E+00  1.350E+03  0.000E+00  0.000E+00
   1   33   70     3    12    5.2408E+02  1.2556E+01   5.1153E+02  0.000E+00  0.000E+00  0.000E+00  2.00301E+03  7.231E-03  3.000E+00  1.630E+03  0.000E+00  0.000E+00
   1   34   69     3    13    5.1153E+02 -2.9097E+01   5.4062E+02  0.000E+00  0.000E+00  0.000E+00  1.98601E+03  6.364E-03  3.000E+00  1.630E+03  0.000E+00  0.000E+00
   1   35   69     3    14    5.4062E+02 -4.3333E+01   5.8396E+02  0.000E+00  0.000E+00  0.000E+00  1.97301E+03  7.180E-03  3.000E+00  1.350E+03  0.000E+00  0.000E+00
   1   36   69     3    15    5.8396E+02  3.0840E+00   5.8087E+02  0.000E+00  0.000E+00  0.000E+00  1.96701E+03  8.036E-03  3.000E+00  1.350E+03  0.000E+00  0.000E+00
   1   37   69     3    16    5.8087E+02  9.2989E+00   5.7157E+02  0.000E+00  0.000E+00  0.000E+00  1.95901E+03  7.985E-03  3.000E+00  1.350E+03  0.000E+00  0.000E+00
   1   38   69     3    17    5.7157E+02  1.1401E+01   5.6017E+02  0.000E+00  0.000E+00  0.000E+00  1.95301E+03  8.545E-03  3.000E+00  1.630E+03  0.000E+00  0.000E+00
   1   39   70     3    18    5.6017E+02 -7.7764E+00   5.6795E+02  0.000E+00  0.000E+00  0.000E+00  1.94601E+03  7.638E-03  3.000E+00  9.546E+02  0.000E+00  0.000E+00
   1   25   49     4     1    0.0000E+00 -1.6943E+02   1.6943E+02  0.000E+00  0.000E+00  0.000E+00  2.03500E+03  2.483E-03  3.000E+00  1.909E+03  0.000E+00  0.000E+00
   1   26   50     4     2    1.6943E+02 -1.0243E+02   2.7186E+02  0.000E+00  0.000E+00  0.000E+00  2.02600E+03  4.784E-03  3.000E+00  1.909E+03  0.000E+00  0.000E+00
   1   27   51     4     3    2.7186E+02 -8.4494E+01   3.5636E+02  0.000E+00  0.000E+00  0.000E+00  2.01901E+03  6.147E-03  3.000E+00  1.630E+03  0.000E+00  0.000E+00
   1   28   51     4     4    3.5636E+02 -9.2266E+01   4.4862E+02  0.000E+00  0.000E+00  0.000E+00  2.01401E+03  7.534E-03  3.000E+00  1.630E+03  0.000E+00  0.000E+00
   1   29   52     4     5    4.4862E+02 -5.4903E+01   5.0353E+02  0.000E+00  0.000E+00  0.000E+00  2.00901E+03  8.332E-03  3.000E+00  1.630E+03  0.000E+00  0.000E+00
   1   30   52     4     6    5.0353E+02 -2.1675E+01   5.2520E+02  0.000E+00  0.000E+00  0.000E+00  2.00401E+03  8.250E-03  3.000E+00  1.350E+03  0.000E+00  0.000E+00
   1   31   52     4     7    5.2520E+02 -2.8595E+01   5.5380E+02  0.000E+00  0.000E+00  0.000E+00  1.99901E+03  9.447E-03  3.000E+00  1.350E+03  0.000E+00  0.000E+00
   1   32   52     4     8    5.5380E+02 -6.3774E+00   5.6017E+02  0.000E+00  0.000E+00  0.000E+00  1.99701E+03  9.789E-03  3.000E+00  1.630E+03  0.000E+00  0.000E+00
   1   33   53     4     9    5.6017E+02  2.3350E+00   5.5784E+02  0.000E+00  0.000E+00  0.000E+00  1.99101E+03  9.621E-03  3.000E+00  1.909E+03  0.000E+00  0.000E+00
   1   34   54     4    10    5.5784E+02  2.5976E+01   5.3186E+02  0.000E+00  0.000E+00  0.000E+00  1.98701E+03  9.779E-03  3.000E+00  1.909E+03  0.000E+00  0.000E+00
   1   35   55     4    11    5.3186E+02  3.1494E+01   5.0037E+02  0.000E+00  0.000E+00  0.000E+00  1.98201E+03  8.500E-03  3.000E+00  1.630E+03  0.000E+00  0.000E+00
   1   36   55     4    12    5.0037E+02 -6.1932E+01   5.6230E+02  0.000E+00  0.000E+00  0.000E+00  1.97601E+03  7.604E-03  3.000E+00  6.750E+02  0.000E+00  0.000E+00
   1   35   37     5     1    5.2277E+03 -6.4734E+01   5.2924E+03  0.000E+00  0.000E+00  0.000E+00  2.05403E+03  2.605E-02  3.000E+00  9.546E+02  0.000E+00  0.000E+00
   1   34   38     5     2    5.2924E+03 -1.3110E+02   5.4235E+03  0.000E+00  0.000E+00  0.000E+00  2.04603E+03  3.243E-02  3.000E+00  1.909E+03  0.000E+00  0.000E+00
   1   33   39     5     3    5.4235E+03 -2.4795E+02   5.6715E+03  0.000E+00  0.000E+00  0.000E+00  2.03804E+03  3.935E-02  3.000E+00  1.909E+03  0.000E+00  0.000E+00
   1   32   40     5     4    5.6715E+03  9.6292E+01   5.5752E+03  0.000E+00  0.000E+00  0.000E+00  2.03704E+03  3.919E-02  3.000E+00  1.630E+03  0.000E+00  0.000E+00
   1   32   41     5     5    5.5752E+03 -1.4588E+02   5.7211E+03  0.000E+00  0.000E+00  0.000E+00  2.03003E+03  3.289E-02  3.000E+00  1.350E+03  0.000E+00  0.000E+00
   1   32   42     5     6    5.7211E+03 -1.7957E+02   5.9006E+03  0.000E+00  0.000E+00  0.000E+00  2.02504E+03  3.932E-02  3.000E+00  1.350E+03  0.000E+00  0.000E+00
   1   32   43     5     7    5.9006E+03 -7.0031E+01   5.9707E+03  0.000E+00  0.000E+00  0.000E+00  2.02304E+03  4.414E-02  3.000E+00  1.630E+03  0.000E+00  0.000E+00
   1   33   44     5     8    5.9707E+03 -1.5702E+02   6.1277E+03  0.000E+00  0.000E+00  0.000E+00  2.01904E+03  4.470E-02  3.000E+00  1.909E+03  0.000E+00  0.000E+00
   1   34   45     5     9    6.1277E+03 -3.0756E+01   6.1584E+03  0.000E+00  0.000E+00  0.000E+00  2.01604E+03  4.133E-02  3.000E+00  1.630E+03  0.000E+00  0.000E+00
   1   34   46     5    10    6.1584E+03 -1.1083E+02   6.2693E+03  0.000E+00  0.000E+00  0.000E+00  2.01104E+03  3.796E-02  3.000E+00  1.350E+03  0.000E+00  0.000E+00
   1   34   47     5    11    6.2693E+03  5.4226E+00   6.2638E+03  0.000E+00  0.000E+00  0.000E+00  2.00703E+03  3.003E-02  3.000E+00  6.750E+02  0.000E+00  0.000E+00
   1   34   47     6     1    6.2842E+03  3.9164E+00   6.2803E+03  0.000E+00  0.000E+00  0.000E+00  2.00703E+03  2.780E-02  3.000E+00  6.750E+02  0.000E+00  0.000E+00
   1   34   48     6     2    6.2803E+03 -1.3699E+02   6.4173E+03  0.000E+00  0.000E+00  0.000E+00  2.00104E+03  3.644E-02  3.000E+00  1.630E+03  0.000E+00  0.000E+00
   1   35   49     6     3    6.4173E+03 -2.8060E+02   6.6979E+03  0.000E+00  0.000E+00  0.000E+00  1.99404E+03  3.907E-02  3.000E+00  1.630E+03  0.000E+00  0.000E+00
   1   35   50     6     4    6.6979E+03 -2.0772E+02   6.9056E+03  0.000E+00  0.000E+00  0.000E+00  1.99005E+03  4.781E-02  3.000E+00  1.350E+03  0.000E+00  0.000E+00
   1   35   51     6     5    6.9056E+03  2.3582E+01   6.8820E+03  0.000E+00  0.000E+00  0.000E+00  1.98905E+03  4.828E-02  3.000E+00  1.630E+03  0.000E+00  0.000E+00
   1   36   52     6     6    6.8820E+03 -1.3757E+02   7.0196E+03  0.000E+00  0.000E+00  0.000E+00  1.98404E+03  4.296E-02  3.000E+00  1.630E+03  0.000E+00  0.000E+00
   1   36   53     6     7    7.0196E+03 -2.3870E+02   7.2583E+03  0.000E+00  0.000E+00  0.000E+00  1.98006E+03  5.568E-02  3.000E+00  1.630E+03  0.000E+00  0.000E+00
   1   37   54     6     8    7.2583E+03 -5.0578E+01   7.3089E+03  0.000E+00  0.000E+00  0.000E+00  1.98006E+03  5.910E-02  3.000E+00  1.909E+03  0.000E+00  0.000E+00
   1   36   55     6     9    7.3089E+03 -5.1806E+01   7.3607E+03  0.000E+00  0.000E+00  0.000E+00  1.97605E+03  4.508E-02  3.000E+00  9.546E+02  0.000E+00  0.000E+00
   1   36   34     7     1    2.2202E+03 -5.3020E+01   2.2732E+03  0.000E+00  0.000E+00  0.000E+00  2.07701E+03  1.421E-02  3.000E+00  9.546E+02  0.000E+00  0.000E+00
   1   35   35     7     2    2.2732E+03 -1.0930E+02   2.3825E+03  0.000E+00  0.000E+00  0.000E+00  2.06702E+03  1.912E-02  3.000E+00  1.630E+03  0.000E+00  0.000E+00
   1   35   36     7     3    2.3825E+03  1.6969E+01   2.3655E+03  0.000E+00  0.000E+00  0.000E+00  2.06202E+03  1.909E-02  3.000E+00  1.350E+03  0.000E+00  0.000E+00
   1   35   37     7     4    2.3655E+03 -5.3480E+01   2.4190E+03  0.000E+00  0.000E+00  0.000E+00  2.05401E+03  1.463E-02  3.000E+00  6.750E+02  0.000E+00  0.000E+00
   1   52   49     8     1    0.0000E+00 -2.1238E+02   2.1238E+02  0.000E+00  0.000E+00  0.000E+00  2.12100E+03  2.930E-03  3.000E+00  1.909E+03  0.000E+00  0.000E+00
   1   51   48     8     2    2.1238E+02 -2.0439E+02   4.1677E+02  0.000E+00  0.000E+00  0.000E+00  2.11701E+03  8.970E-03  3.000E+00  1.909E+03  0.000E+00  0.000E+00
   1   50   47     8     3    4.1677E+02  9.7776E+01   3.1899E+02  0.000E+00  0.000E+00  0.000E+00  2.11701E+03  7.633E-03  3.000E+00  1.630E+03  9.775E+01  2.211E-02
   1   49   47     8     4    3.1899E+02 -2.1703E+02   5.3603E+02  0.000E+00  0.000E+00  0.000E+00  2.10901E+03  7.812E-03  3.000E+00  1.630E+03  0.000E+00  0.000E+00
   1   48   46     8     5    5.3603E+02  6.1571E+00   5.2987E+02  0.000E+00  0.000E+00  0.000E+00  2.10701E+03  1.174E-02  3.000E+00  1.630E+03  0.000E+00  0.000E+00
   1   47   46     8     6    5.2987E+02  8.5929E+01   4.4394E+02  0.000E+00  0.000E+00  0.000E+00  2.10501E+03  1.051E-02  3.000E+00  1.350E+03  0.000E+00  0.000E+00
   1   46   46     8     7    4.4394E+02  8.1000E+01   3.6294E+02  0.000E+00  0.000E+00  0.000E+00  2.10301E+03  8.312E-03  3.000E+00  1.350E+03  8.111E+01 -1.067E-01
   1   45   46     8     8    3.6294E+02  8.1000E+01   2.8194E+02  0.000E+00  0.000E+00  0.000E+00  2.09901E+03  5.902E-03  3.000E+00  1.350E+03  8.129E+01 -2.903E-01
   1   44   46     8     9    2.8194E+02  8.1000E+01   2.0094E+02  0.000E+00  0.000E+00  0.000E+00  2.09100E+03  4.323E-03  3.000E+00  1.350E+03  8.166E+01 -6.585E-01
   1   43   46     8    10    2.0094E+02  1.4845E+02   5.2492E+01  0.000E+00  0.000E+00  0.000E+00  2.08000E+03  2.936E-03  3.000E+00  1.350E+03  0.000E+00  0.000E+00
   1   42   46     8    11    5.2492E+01  5.2492E+01   0.0000E+00  0.000E+00  0.000E+00  0.000E+00  2.07200E+03  4.056E-04  3.000E+00  1.630E+03  5.347E+01 -9.768E-01
   1   41   45     8    12    0.0000E+00 -8.4784E+01   8.4784E+01  0.000E+00  0.000E+00  0.000E+00  2.06000E+03  1.642E-03  3.000E+00  1.630E+03  0.000E+00  0.000E+00
   1   40   45     8    13    8.4784E+01  8.1000E+01   3.7835E+00  0.000E+00  0.000E+00  0.000E+00  2.05400E+03  1.715E-03  3.000E+00  1.350E+03  8.123E+01 -2.293E-01
   1   39   45     8    14    3.7835E+00  3.7835E+00   0.0000E+00  0.000E+00  0.000E+00  0.000E+00  2.04600E+03  8.034E-05  3.000E+00  1.350E+03  7.232E+00 -3.449E+00
   1   38   45     8    15    0.0000E+00  0.0000E+00   0.0000E+00  0.000E+00  0.000E+00  0.000E+00  2.03500E+03  0.000E+00  3.000E+00  1.350E+03  0.000E+00  0.000E+00
   1   37   45     8    16    0.0000E+00  0.0000E+00   0.0000E+00  0.000E+00  0.000E+00  0.000E+00  2.02700E+03  0.000E+00  3.000E+00  1.630E+03  0.000E+00  0.000E+00
   1   36   46     8    17    0.0000E+00  0.0000E+00   0.0000E+00  0.000E+00  0.000E+00  0.000E+00  2.02100E+03  0.000E+00  3.000E+00  1.630E+03  0.000E+00  0.000E+00
   1   35   46     8    18    0.0000E+00  0.0000E+00   0.0000E+00  0.000E+00  0.000E+00  0.000E+00  2.01400E+03  0.000E+00  3.000E+00  1.630E+03  0.000E+00  0.000E+00
   1   34   47     8    19    0.0000E+00 -2.0368E+01   2.0368E+01  0.000E+00  0.000E+00  0.000E+00  2.00700E+03  6.594E-04  3.000E+00  9.546E+02  0.000E+00  0.000E+00
   1   37   26     9     1    0.0000E+00  0.0000E+00   0.0000E+00  0.000E+00  0.000E+00  0.000E+00  2.14700E+03  0.000E+00  3.000E+00  1.350E+03  0.000E+00  0.000E+00
   1   37   27     9     2    0.0000E+00 -6.2755E+01   6.2755E+01  0.000E+00  0.000E+00  0.000E+00  2.13400E+03  1.216E-03  3.000E+00  1.350E+03  0.000E+00  0.000E+00
   1   37   28     9     3    6.2755E+01 -1.4292E+02   2.0567E+02  0.000E+00  0.000E+00  0.000E+00  2.12500E+03  3.215E-03  3.000E+00  1.630E+03  0.000E+00  0.000E+00
   1   36   29     9     4    2.0567E+02 -3.4388E+00   2.0911E+02  0.000E+00  0.000E+00  0.000E+00  2.11500E+03  4.243E-03  3.000E+00  1.630E+03  0.000E+00  0.000E+00
   1   36   30     9     5    2.0911E+02 -9.0285E+01   2.9940E+02  0.000E+00  0.000E+00  0.000E+00  2.10700E+03  4.610E-03  3.000E+00  1.350E+03  0.000E+00  0.000E+00
   1   36   31     9     6    2.9940E+02 -2.0504E+02   5.0444E+02  0.000E+00  0.000E+00  0.000E+00  2.09801E+03  6.179E-03  3.000E+00  1.350E+03  0.000E+00  0.000E+00
   1   36   32     9     7    5.0444E+02 -1.5140E+02   6.5584E+02  0.000E+00  0.000E+00  0.000E+00  2.09101E+03  8.015E-03  3.000E+00  1.350E+03  0.000E+00  0.000E+00
   1   36   33     9     8    6.5584E+02 -1.3944E+02   7.9527E+02  0.000E+00  0.000E+00  0.000E+00  2.08401E+03  9.166E-03  3.000E+00  1.350E+03  0.000E+00  0.000E+00
   1   36   34     9     9    7.9527E+02 -4.1996E+01   8.3727E+02  0.000E+00  0.000E+00  0.000E+00  2.07701E+03  7.539E-03  3.000E+00  6.750E+02  0.000E+00  0.000E+00
   1   58   37    10     1    0.0000E+00 -1.3482E+02   1.3482E+02  0.000E+00  0.000E+00  0.000E+00  2.15000E+03  3.208E-03  3.000E+00  1.350E+03  0.000E+00  0.000E+00
   1   57   37    10     2    1.3482E+02 -9.4746E+01   2.2957E+02  0.000E+00  0.000E+00  0.000E+00  2.14701E+03  5.211E-03  3.000E+00  1.630E+03  0.000E+00  0.000E+00
   1   56   38    10     3    2.2957E+02 -1.7744E+01   2.4731E+02  0.000E+00  0.000E+00  0.000E+00  2.14301E+03  5.680E-03  3.000E+00  1.630E+03  0.000E+00  0.000E+00
   1   55   38    10     4    2.4731E+02 -1.7301E+02   4.2032E+02  0.000E+00  0.000E+00  0.000E+00  2.13801E+03  6.806E-03  3.000E+00  1.350E+03  0.000E+00  0.000E+00
   1   54   38    10     5    4.2032E+02 -1.1652E+02   5.3685E+02  0.000E+00  0.000E+00  0.000E+00  2.13501E+03  9.208E-03  3.000E+00  1.350E+03  0.000E+00  0.000E+00
   1   53   38    10     6    5.3685E+02 -1.1095E+02   6.4780E+02  0.000E+00  0.000E+00  0.000E+00  2.13201E+03  1.046E-02  3.000E+00  1.350E+03  0.000E+00  0.000E+00
   1   52   38    10     7    6.4780E+02 -1.7269E+02   8.2049E+02  0.000E+00  0.000E+00  0.000E+00  2.12901E+03  1.422E-02  3.000E+00  1.630E+03  0.000E+00  0.000E+00
   1   51   39    10     8    8.2049E+02  3.4309E+00   8.1706E+02  0.000E+00  0.000E+00  0.000E+00  2.12802E+03  1.519E-02  3.000E+00  1.630E+03  0.000E+00  0.000E+00
   1   50   39    10     9    8.1706E+02 -8.2958E+01   9.0002E+02  0.000E+00  0.000E+00  0.000E+00  2.12501E+03  1.321E-02  3.000E+00  1.630E+03  0.000E+00  0.000E+00
   1   49   38    10    10    9.0002E+02 -1.5214E+02   1.0522E+03  0.000E+00  0.000E+00  0.000E+00  2.12101E+03  1.496E-02  3.000E+00  1.909E+03  0.000E+00  0.000E+00
   1   48   37    10    11    1.0522E+03  2.0437E+01   1.0317E+03  0.000E+00  0.000E+00  0.000E+00  2.11801E+03  1.324E-02  3.000E+00  1.909E+03  0.000E+00  0.000E+00
   1   47   36    10    12    1.0317E+03 -3.3782E+02   1.3695E+03  0.000E+00  0.000E+00  0.000E+00  2.10901E+03  1.374E-02  3.000E+00  1.630E+03  0.000E+00  0.000E+00
   1   46   36    10    13    1.3695E+03 -1.3251E+02   1.5021E+03  0.000E+00  0.000E+00  0.000E+00  2.10602E+03  1.700E-02  3.000E+00  1.350E+03  0.000E+00  0.000E+00
   1   45   36    10    14    1.5021E+03 -1.6785E+02   1.6699E+03  0.000E+00  0.000E+00  0.000E+00  2.10202E+03  1.804E-02  3.000E+00  1.350E+03  0.000E+00  0.000E+00
   1   44   36    10    15    1.6699E+03 -9.5058E+01   1.7650E+03  0.000E+00  0.000E+00  0.000E+00  2.09902E+03  1.982E-02  3.000E+00  1.350E+03  0.000E+00  0.000E+00
   1   43   36    10    16    1.7650E+03  2.1500E-01   1.7648E+03  0.000E+00  0.000E+00  0.000E+00  2.09602E+03  1.888E-02  3.000E+00  1.630E+03  0.000E+00  0.000E+00
   1   42   37    10    17    1.7648E+03  9.7776E+01   1.6670E+03  0.000E+00  0.000E+00  0.000E+00  2.09002E+03  1.562E-02  3.000E+00  1.630E+03  9.770E+01  7.893E-02
   1   41   37    10    18    1.6670E+03 -2.3068E+02   1.8977E+03  0.000E+00  0.000E+00  0.000E+00  2.08002E+03  1.510E-02  3.000E+00  1.350E+03  0.000E+00  0.000E+00
   1   40   37    10    19    1.8977E+03 -3.3108E+02   2.2287E+03  0.000E+00  0.000E+00  0.000E+00  2.07402E+03  2.073E-02  3.000E+00  1.630E+03  0.000E+00  0.000E+00
   1   39   38    10    20    2.2287E+03 -3.1366E+01   2.2601E+03  0.000E+00  0.000E+00  0.000E+00  2.07102E+03  2.351E-02  3.000E+00  1.630E+03  0.000E+00  0.000E+00
   1   38   38    10    21    2.2601E+03  1.5857E+01   2.2442E+03  0.000E+00  0.000E+00  0.000E+00  2.06702E+03  2.117E-02  3.000E+00  1.630E+03  0.000E+00  0.000E+00
   1   37   37    10    22    2.2442E+03 -3.0103E+02   2.5453E+03  0.000E+00  0.000E+00  0.000E+00  2.06102E+03  2.196E-02  3.000E+00  1.630E+03  0.000E+00  0.000E+00
   1   36   37    10    23    2.5453E+03 -2.1216E+02   2.7574E+03  0.000E+00  0.000E+00  0.000E+00  2.05702E+03  2.456E-02  3.000E+00  1.350E+03  0.000E+00  0.000E+00
   1   35   37    10    24    2.7574E+03 -5.1255E+01   2.8087E+03  0.000E+00  0.000E+00  0.000E+00  2.05402E+03  1.793E-02  3.000E+00  6.750E+02  0.000E+00  0.000E+00
   1   36   55    11     1    7.9230E+03 -4.1056E+01   7.9640E+03  0.000E+00  0.000E+00  0.000E+00  1.97604E+03  3.853E-02  3.000E+00  6.750E+02  0.000E+00  0.000E+00
   1   36   56    11     2    7.9640E+03 -6.2849E+01   8.0269E+03  0.000E+00  0.000E+00  0.000E+00  1.97506E+03  6.497E-02  3.000E+00  1.630E+03  0.000E+00  0.000E+00
   1   37   57    11     3    8.0269E+03 -1.4265E+02   8.1695E+03  0.000E+00  0.000E+00  0.000E+00  1.97307E+03  6.547E-02  3.000E+00  1.630E+03  0.000E+00  0.000E+00
   1   37   58    11     4    8.1695E+03 -9.8079E+01   8.2676E+03  0.000E+00  0.000E+00  0.000E+00  1.97209E+03  8.680E-02  3.000E+00  1.350E+03  0.000E+00  0.000E+00
   1   37   59    11     5    8.2676E+03 -1.8748E+00   8.2695E+03  0.000E+00  0.000E+00  0.000E+00  1.97207E+03  7.076E-02  3.000E+00  1.350E+03  0.000E+00  0.000E+00
   1   37   60    11     6    8.2695E+03 -2.3882E+01   8.2934E+03  0.000E+00  0.000E+00  0.000E+00  1.97006E+03  5.693E-02  3.000E+00  1.630E+03  0.000E+00  0.000E+00
   1   38   61    11     7    8.2934E+03 -1.0050E+02   8.3939E+03  0.000E+00  0.000E+00  0.000E+00  1.96705E+03  5.169E-02  3.000E+00  1.630E+03  0.000E+00  0.000E+00
   1   38   62    11     8    8.3939E+03 -9.8048E+01   8.4919E+03  0.000E+00  0.000E+00  0.000E+00  1.96305E+03  4.727E-02  3.000E+00  6.750E+02  0.000E+00  0.000E+00
   1   51   11    12     1    0.0000E+00 -4.9082E+02   4.9082E+02  0.000E+00  0.000E+00  0.000E+00  2.38700E+03  4.636E-03  3.000E+00  1.909E+03  0.000E+00  0.000E+00
   1   50   12    12     2    4.9082E+02 -6.2155E+01   5.5298E+02  0.000E+00  0.000E+00  0.000E+00  2.37501E+03  6.950E-03  3.000E+00  1.630E+03  0.000E+00  0.000E+00
   1   49   12    12     3    5.5298E+02 -3.8773E+02   9.4071E+02  0.000E+00  0.000E+00  0.000E+00  2.36501E+03  9.005E-03  3.000E+00  1.630E+03  0.000E+00  0.000E+00
   1   48   13    12     4    9.4071E+02 -1.8373E+02   1.1244E+03  0.000E+00  0.000E+00  0.000E+00  2.35601E+03  1.174E-02  3.000E+00  1.630E+03  0.000E+00  0.000E+00
   1   48   14    12     5    1.1244E+03 -1.6670E+02   1.2911E+03  0.000E+00  0.000E+00  0.000E+00  2.35001E+03  1.265E-02  3.000E+00  1.630E+03  0.000E+00  0.000E+00
   1   47   15    12     6    1.2911E+03 -1.7214E+02   1.4633E+03  0.000E+00  0.000E+00  0.000E+00  2.34001E+03  1.396E-02  3.000E+00  1.630E+03  0.000E+00  0.000E+00
   1   47   16    12     7    1.4633E+03 -1.2770E+02   1.5910E+03  0.000E+00  0.000E+00  0.000E+00  2.33502E+03  1.630E-02  3.000E+00  1.630E+03  0.000E+00  0.000E+00
   1   46   17    12     8    1.5910E+03  7.5101E+01   1.5159E+03  0.000E+00  0.000E+00  0.000E+00  2.32902E+03  1.531E-02  3.000E+00  1.630E+03  0.000E+00  0.000E+00
   1   46   18    12     9    1.5159E+03  1.6837E+02   1.3475E+03  0.000E+00  0.000E+00  0.000E+00  2.32101E+03  1.188E-02  3.000E+00  1.350E+03  0.000E+00  0.000E+00
   1   46   19    12    10    1.3475E+03 -1.5988E+02   1.5074E+03  0.000E+00  0.000E+00  0.000E+00  2.30601E+03  1.348E-02  3.000E+00  1.350E+03  0.000E+00  0.000E+00
   1   46   20    12    11    1.5074E+03  9.7776E+01   1.4096E+03  0.000E+00  0.000E+00  0.000E+00  2.30601E+03  1.151E-02  3.000E+00  1.630E+03  9.774E+01  3.761E-02
   1   45   21    12    12    1.4096E+03 -5.2684E+01   1.4623E+03  0.000E+00  0.000E+00  0.000E+00  2.27401E+03  1.011E-02  3.000E+00  1.909E+03  0.000E+00  0.000E+00
   1   44   22    12    13    1.4623E+03 -1.4081E+02   1.6031E+03  0.000E+00  0.000E+00  0.000E+00  2.25001E+03  1.138E-02  3.000E+00  1.909E+03  0.000E+00  0.000E+00
   1   43   23    12    14    1.6031E+03  1.5056E+02   1.4526E+03  0.000E+00  0.000E+00  0.000E+00  2.23101E+03  1.144E-02  3.000E+00  1.909E+03  0.000E+00  0.000E+00
   1   42   24    12    15    1.4526E+03 -8.0361E+01   1.5329E+03  0.000E+00  0.000E+00  0.000E+00  2.20801E+03  1.178E-02  3.000E+00  1.630E+03  0.000E+00  0.000E+00
   1   42   25    12    16    1.5329E+03 -1.8502E+01   1.5514E+03  0.000E+00  0.000E+00  0.000E+00  2.20001E+03  1.295E-02  3.000E+00  1.350E+03  0.000E+00  0.000E+00
   1   42   26    12    17    1.5514E+03  1.2297E+02   1.4285E+03  0.000E+00  0.000E+00  0.000E+00  2.18801E+03  1.123E-02  3.000E+00  1.350E+03  0.000E+00  0.000E+00
   1   42   27    12    18    1.4285E+03 -2.5857E+02   1.6870E+03  0.000E+00  0.000E+00  0.000E+00  2.17001E+03  1.165E-02  3.000E+00  1.350E+03  0.000E+00  0.000E+00
   1   42   28    12    19    1.6870E+03 -8.6029E+01   1.7730E+03  0.000E+00  0.000E+00  0.000E+00  2.15901E+03  1.327E-02  3.000E+00  1.630E+03  0.000E+00  0.000E+00
   1   41   29    12    20    1.7730E+03  1.5827E+02   1.6148E+03  0.000E+00  0.000E+00  0.000E+00  2.14201E+03  1.320E-02  3.000E+00  1.909E+03  0.000E+00  0.000E+00
   1   40   30    12    21    1.6148E+03  5.7061E+01   1.5577E+03  0.000E+00  0.000E+00  0.000E+00  2.12701E+03  1.335E-02  3.000E+00  1.909E+03  0.000E+00  0.000E+00
   1   39   31    12    22    1.5577E+03  1.1455E+02   1.4432E+03  0.000E+00  0.000E+00  0.000E+00  2.11501E+03  1.338E-02  3.000E+00  1.909E+03  1.144E+02  1.244E-01
   1   38   32    12    23    1.4432E+03  1.1455E+02   1.3286E+03  0.000E+00  0.000E+00  0.000E+00  2.10301E+03  1.246E-02  3.000E+00  1.909E+03  1.144E+02  1.055E-01
   1   37   33    12    24    1.3286E+03  2.2821E+00   1.3263E+03  0.000E+00  0.000E+00  0.000E+00  2.08901E+03  1.214E-02  3.000E+00  1.909E+03  0.000E+00  0.000E+00
   1   36   34    12    25    1.3263E+03 -5.6572E+01   1.3829E+03  0.000E+00  0.000E+00  0.000E+00  2.07701E+03  1.049E-02  3.000E+00  9.546E+02  0.000E+00  0.000E+00
   1   38   62    13     1    8.6732E+03 -1.0523E+02   8.7784E+03  0.000E+00  0.000E+00  0.000E+00  1.96304E+03  3.663E-02  3.000E+00  6.750E+02  0.000E+00  0.000E+00
   1   38   63    13     2    8.7784E+03 -1.2527E+01   8.7909E+03  0.000E+00  0.000E+00  0.000E+00  1.96539E+03  2.395E+00  3.000E+00  1.350E+03  0.000E+00  0.000E+00
   1   38   64    13     3    8.7909E+03  1.4284E+01   8.7767E+03  0.000E+00  0.000E+00  0.000E+00  1.96539E+03  2.395E+00  3.000E+00  1.350E+03  0.000E+00  0.000E+00
   1   38   65    13     4    8.7767E+03 -4.3286E+01   8.8199E+03  0.000E+00  0.000E+00  0.000E+00  1.96307E+03  6.504E-02  3.000E+00  1.350E+03  0.000E+00  0.000E+00
   1   38   66    13     5    8.8199E+03 -7.8195E+01   8.8981E+03  0.000E+00  0.000E+00  0.000E+00  1.96006E+03  5.603E-02  3.000E+00  1.350E+03  0.000E+00  0.000E+00
   1   38   67    13     6    8.8981E+03 -5.2006E+01   8.9502E+03  0.000E+00  0.000E+00  0.000E+00  1.95805E+03  5.383E-02  3.000E+00  1.630E+03  0.000E+00  0.000E+00
   1   39   68    13     7    8.9502E+03 -2.5164E+01   8.9753E+03  0.000E+00  0.000E+00  0.000E+00  1.95305E+03  4.849E-02  3.000E+00  1.630E+03  0.000E+00  0.000E+00
   1   39   69    13     8    8.9753E+03 -8.1561E+01   9.0569E+03  0.000E+00  0.000E+00  0.000E+00  1.94805E+03  5.119E-02  3.000E+00  1.350E+03  0.000E+00  0.000E+00
   1   39   70    13     9    9.0569E+03  1.8799E+01   9.0381E+03  0.000E+00  0.000E+00  0.000E+00  1.94604E+03  4.363E-02  3.000E+00  6.750E+02  0.000E+00  0.000E+00
   1   46   61    14     1    0.0000E+00 -2.5628E+01   2.5628E+01  0.000E+00  0.000E+00  0.000E+00  2.01700E+03  8.159E-04  3.000E+00  1.350E+03  0.000E+00  0.000E+00
   1   45   61    14     2    2.5628E+01  2.5628E+01   0.0000E+00  0.000E+00  0.000E+00  0.000E+00  2.01000E+03  2.983E-04  3.000E+00  1.350E+03  0.000E+00  0.000E+00
   1   44   61    14     3    0.0000E+00  0.0000E+00   0.0000E+00  0.000E+00  0.000E+00  0.000E+00  2.00600E+03  0.000E+00  3.000E+00  1.350E+03  0.000E+00  0.000E+00
   1   43   61    14     4    0.0000E+00  0.0000E+00   0.0000E+00  0.000E+00  0.000E+00  0.000E+00  1.99900E+03  0.000E+00  3.000E+00  1.350E+03  0.000E+00  0.000E+00
   1   42   61    14     5    0.0000E+00  0.0000E+00   0.0000E+00  0.000E+00  0.000E+00  0.000E+00  1.99300E+03  0.000E+00  3.000E+00  1.350E+03  0.000E+00  0.000E+00
   1   41   61    14     6    0.0000E+00  0.0000E+00   0.0000E+00  0.000E+00  0.000E+00  0.000E+00  1.98500E+03  0.000E+00  3.000E+00  1.350E+03  0.000E+00  0.000E+00
   1   40   61    14     7    0.0000E+00 -3.8286E+01   3.8286E+01  0.000E+00  0.000E+00  0.000E+00  1.97800E+03  1.087E-03  3.000E+00  1.350E+03  0.000E+00  0.000E+00
   1   39   61    14     8    3.8286E+01  3.8286E+01   0.0000E+00  0.000E+00  0.000E+00  0.000E+00  1.97300E+03  3.659E-04  3.000E+00  1.630E+03  0.000E+00  0.000E+00
   1   38   62    14     9    0.0000E+00 -1.8128E+02   1.8128E+02  0.000E+00  0.000E+00  0.000E+00  1.96300E+03  2.627E-03  3.000E+00  9.546E+02  0.000E+00  0.000E+00
   1   39   70    15     1    9.6060E+03  1.4789E+01   9.5912E+03  0.000E+00  0.000E+00  0.000E+00  1.94604E+03  3.769E-02  3.000E+00  6.750E+02  0.000E+00  0.000E+00
   1   39   71    15     2    9.5912E+03 -1.1309E+02   9.7043E+03  0.000E+00  0.000E+00  0.000E+00  1.94206E+03  6.240E-02  3.000E+00  1.630E+03  0.000E+00  0.000E+00
   1   40   72    15     3    9.7043E+03 -3.4717E+01   9.7390E+03  0.000E+00  0.000E+00  0.000E+00  1.94107E+03  6.702E-02  3.000E+00  1.630E+03  0.000E+00  0.000E+00
   1   40   73    15     4    9.7390E+03 -5.0526E+01   9.7896E+03  0.000E+00  0.000E+00  0.000E+00  1.93806E+03  5.940E-02  3.000E+00  1.350E+03  0.000E+00  0.000E+00
   1   40   74    15     5    9.7896E+03 -2.6303E+01   9.8159E+03  0.000E+00  0.000E+00  0.000E+00  1.93606E+03  6.366E-02  3.000E+00  1.350E+03  0.000E+00  0.000E+00
   1   40   75    15     6    9.8159E+03 -1.1545E+00   9.8170E+03  0.000E+00  0.000E+00  0.000E+00  1.93406E+03  5.642E-02  3.000E+00  6.750E+02  0.000E+00  0.000E+00
   1   40   75    16     1    1.0727E+04 -4.7748E+00   1.0732E+04  0.000E+00  0.000E+00  0.000E+00  1.93405E+03  5.105E-02  3.000E+00  6.750E+02  0.000E+00  0.000E+00
   1   40   76    16     2    1.0732E+04  0.0000E+00   1.0732E+04  0.000E+00  0.000E+00  0.000E+00  1.93307E+03  7.327E-02  3.000E+00  0.000E+00  0.000E+00  0.000E+00
   1   55   73    17     1    0.0000E+00 -5.0111E+00   5.0111E+00  0.000E+00  0.000E+00  0.000E+00  2.04100E+03  2.726E-04  3.000E+00  1.350E+03  0.000E+00  0.000E+00
   1   54   73    17     2    5.0111E+00  5.0111E+00   0.0000E+00  0.000E+00  0.000E+00  0.000E+00  2.02900E+03  8.866E-05  3.000E+00  1.350E+03  5.117E+00 -1.057E-01
   1   53   73    17     3    0.0000E+00  0.0000E+00   0.0000E+00  0.000E+00  0.000E+00  0.000E+00  2.01700E+03  0.000E+00  3.000E+00  1.350E+03  0.000E+00  0.000E+00
   1   52   73    17     4    0.0000E+00 -5.7957E+01   5.7957E+01  0.000E+00  0.000E+00  0.000E+00  2.01000E+03  1.285E-03  3.000E+00  1.630E+03  0.000E+00  0.000E+00
   1   51   72    17     5    5.7957E+01 -2.4517E+02   3.0313E+02  0.000E+00  0.000E+00  0.000E+00  1.99800E+03  3.972E-03  3.000E+00  1.630E+03  0.000E+00  0.000E+00
   1   50   72    17     6    3.0313E+02 -1.7197E+01   3.2033E+02  0.000E+00  0.000E+00  0.000E+00  1.99301E+03  5.784E-03  3.000E+00  1.350E+03  0.000E+00  0.000E+00
   1   49   72    17     7    3.2033E+02 -8.3165E+01   4.0349E+02  0.000E+00  0.000E+00  0.000E+00  1.98601E+03  6.039E-03  3.000E+00  1.350E+03  0.000E+00  0.000E+00
   1   48   72    17     8    4.0349E+02 -1.2513E+02   5.2862E+02  0.000E+00  0.000E+00  0.000E+00  1.97901E+03  7.029E-03  3.000E+00  1.350E+03  0.000E+00  0.000E+00
   1   47   72    17     9    5.2862E+02 -1.8955E+02   7.1817E+02  0.000E+00  0.000E+00  0.000E+00  1.97201E+03  8.557E-03  3.000E+00  1.350E+03  0.000E+00  0.000E+00
   1   46   72    17    10    7.1817E+02 -2.2727E+01   7.4090E+02  0.000E+00  0.000E+00  0.000E+00  1.96601E+03  9.633E-03  3.000E+00  1.350E+03  0.000E+00  0.000E+00
   1   45   72    17    11    7.4090E+02 -7.2775E+00   7.4818E+02  0.000E+00  0.000E+00  0.000E+00  1.96001E+03  9.850E-03  3.000E+00  1.630E+03  0.000E+00  0.000E+00
   1   44   73    17    12    7.4818E+02 -2.2498E+01   7.7067E+02  0.000E+00  0.000E+00  0.000E+00  1.95201E+03  1.019E-02  3.000E+00  1.630E+03  0.000E+00  0.000E+00
   1   43   73    17    13    7.7067E+02 -4.2093E+01   8.1277E+02  0.000E+00  0.000E+00  0.000E+00  1.94701E+03  1.142E-02  3.000E+00  1.350E+03  0.000E+00  0.000E+00
   1   42   73    17    14    8.1277E+02 -7.3003E+00   8.2007E+02  0.000E+00  0.000E+00  0.000E+00  1.94401E+03  1.189E-02  3.000E+00  1.630E+03  0.000E+00  0.000E+00
   1   41   74    17    15    8.2007E+02 -4.6563E+01   8.6663E+02  0.000E+00  0.000E+00  0.000E+00  1.93801E+03  1.231E-02  3.000E+00  1.909E+03  0.000E+00  0.000E+00
   1   40   75    17    16    8.6663E+02 -4.3360E+01   9.0999E+02  0.000E+00  0.000E+00  0.000E+00  1.93401E+03  1.270E-02  3.000E+00  9.546E+02  0.000E+00  0.000E+00
   1   37   55    18     1    0.0000E+00  0.0000E+00   0.0000E+00  0.000E+00  0.000E+00  0.000E+00  2.00700E+03  0.000E+00  3.000E+00  1.630E+03  0.000E+00  0.000E+00
   1   36   54    19     1    0.0000E+00  0.0000E+00   0.0000E+00  0.000E+00  0.000E+00  0.000E+00  2.00700E+03  0.000E+00  3.000E+00  1.630E+03  0.000E+00  0.000E+00



1
  VOLUMETRIC BUDGET FOR UNSATURATED ZONE BENEATH STREAMS AT END OF TIME STEP    31 STRESS PERIOD   5
  ------------------------------------------------------------------------------------------------

    CUMULATIVE VOLUMES             L**3    RATES FOR THIS TIME STEP         L**3/T
    ------------------                     ------------------------


          STREAM LOSS =       135131.0781            STREAM LOSS =         1005.4919
    CHANGE IN STORAGE =           53.8837      CHANGE IN STORAGE =           -5.9180
       RECHARGE TO GW =       135077.5312         RECHARGE TO GW =         1011.4092

             TOTAL IN =       135131.0781               TOTAL IN =         1011.4099

            TOTAL OUT =       135131.4219              TOTAL OUT =         1011.4092

             IN - OUT =           -0.3438               IN - OUT =        6.7139E-04

  PERCENT DISCREPANCY =           -0.00      PERCENT DISCREPANCY =             0.00



 ***WARNING***NUZTOP IS 3 AND ALL LAYERS  IN ROW           39  AND COLUMN           76  ARE INACTIVE.
 UNSATURATED FLOW WILL NOT BE ADDED TO ANY LAYER-- SOME WATER MAY FLOW PAST LOWEST LAYER
 ***WARNING***NUZTOP IS 3 AND ALL LAYERS  IN ROW           40  AND COLUMN           76  ARE INACTIVE.
 UNSATURATED FLOW WILL NOT BE ADDED TO ANY LAYER-- SOME WATER MAY FLOW PAST LOWEST LAYER


UNSATURATED ZONE PACKAGE VOLUMETRIC BUDGET FOR  TIME STEP    31 STRESS PERIOD    5
  ------------------------------------------------------------------------------



     CUMULATIVE VOLUMES      L**3       RATES FOR THIS TIME STEP      L**3/T
     ------------------                 ------------------------

           IN:                                      IN:
           ---                                      ---
        INFILTRATION =       26653.0419          INFILTRATION =       0.0000E+00

          OUT:                                     OUT:
          ----                                     ----
              UZF ET =      657956.7333                UZF ET =          19.0552
        UZF RECHARGE =     2187012.7856          UZF RECHARGE =       11994.8242

            IN - OUT =    -2818316.4770              IN - OUT =      -12013.8793

          STORAGE:                                 STORAGE:
          --------                                 --------
      STORAGE CHANGE =    -2816338.0521        STORAGE CHANGE =      -12013.8089

 PERCENT DISCREPANCY IS DIFFERENCE BETWEEN IN-OUT MINUS CHANGE IN STORAGE
 DIVIDED BY THE AVERAGE OF IN AND OUT TIMES 100

 PERCENT DISCREPANCY =          -0.02     PERCENT DISCREPANCY =          -0.00






1
  VOLUMETRIC BUDGET FOR AGRICULTURAL FIELDS AT  END OF TIME STEP   31, STRESS PERIOD   5
  ------------------------------------------------------------------------------

     CUMULATIVE VOLUMES      L**3       RATES FOR THIS TIME STEP      L**3/T
     ------------------                 ------------------------

           IN:                                      IN:
           ---                                      ---
               AG WELLS  =           0.0000                 AG WELLS  =          -0.0000
      DIVERSION SEGMENTS =           0.0000        DIVERSION SEGMENTS =           0.0000
       IRRIGATION PONDS  =           0.0000         IRRIGATION PONDS  =           0.0000
           GW IRRIGATION =           0.0000             GW IRRIGATION =           0.0000
           SW IRRIGATION =           0.0000             SW IRRIGATION =           0.0000
        SYSTEM LOSSES GW =           0.0000          SYSTEM LOSSES GW =           0.0000
        SYSTEM LOSSES SW =           0.0000          SYSTEM LOSSES SW =          -0.0000

                TOTAL IN =           0.0000                  TOTAL IN =           0.0000

          OUT:                                     OUT:
          ----                                     ----
               AG WELLS  =           0.0000                 AG WELLS  =           0.0000
      DIVERSION SEGMENTS =           0.0000        DIVERSION SEGMENTS =           0.0000
       IRRIGATION PONDS  =           0.0000         IRRIGATION PONDS  =           0.0000
           GW IRRIGATION =           0.0000             GW IRRIGATION =           0.0000
           SW IRRIGATION =           0.0000             SW IRRIGATION =           0.0000
        SYSTEM LOSSES GW =           0.0000          SYSTEM LOSSES GW =           0.0000
        SYSTEM LOSSES SW =           0.0000          SYSTEM LOSSES SW =           0.0000

               TOTAL OUT =           0.0000                 TOTAL OUT =           0.0000

                IN - OUT =           0.0000                  IN - OUT =           0.0000

     PERCENT DISCREPANCY =           0.00         PERCENT DISCREPANCY =           0.00



1
  VOLUMETRIC BUDGET FOR ENTIRE MODEL AT END OF TIME STEP   31, STRESS PERIOD   5
  ------------------------------------------------------------------------------

     CUMULATIVE VOLUMES      L**3       RATES FOR THIS TIME STEP      L**3/T
     ------------------                 ------------------------

           IN:                                      IN:
           ---                                      ---
             STORAGE     =      358826.2812               STORAGE     =        5967.1118
       CONSTANT HEAD     =          12.1661         CONSTANT HEAD     =           0.5348
      STREAM LEAKAGE     =      328189.2812        STREAM LEAKAGE     =        2527.4294
        UZF RECHARGE     =     2187026.7500          UZF RECHARGE     =       11994.8135
               GW ET     =           0.0000                 GW ET     =           0.0000
     SURFACE LEAKAGE     =           0.0000       SURFACE LEAKAGE     =           0.0000
           AG WELLS      =           0.0000             AG WELLS      =           0.0000

                TOTAL IN =     2874054.5000                  TOTAL IN =       20489.8906

          OUT:                                     OUT:
          ----                                     ----
             STORAGE     =      960120.4375               STORAGE     =        2781.2595
       CONSTANT HEAD     =        4440.3872         CONSTANT HEAD     =          35.5465
      STREAM LEAKAGE     =     1571062.8750        STREAM LEAKAGE     =       13248.9463
        UZF RECHARGE     =           0.0000          UZF RECHARGE     =           0.0000
               GW ET     =      324231.0000                 GW ET     =        4262.4653
     SURFACE LEAKAGE     =       14208.3037       SURFACE LEAKAGE     =         164.0999
           AG WELLS      =           0.0000             AG WELLS      =           0.0000

               TOTAL OUT =     2874063.0000                 TOTAL OUT =       20492.3164

                IN - OUT =          -8.5000                  IN - OUT =          -2.4258

     PERCENT DISCREPANCY =          -0.00         PERCENT DISCREPANCY =          -0.01






         TIME SUMMARY AT END OF TIME STEP   31 IN STRESS PERIOD    5
                    SECONDS     MINUTES      HOURS       DAYS        YEARS
                    -----------------------------------------------------------
   TIME STEP LENGTH  86400.      1440.0      24.000      1.0000     2.73785E-03
 STRESS PERIOD TIME 2.67840E+06  44640.      744.00      31.000     8.48734E-02
         TOTAL TIME 1.07136E+07 1.78560E+05  2976.0      124.00     0.33949    
1
1
                            STRESS PERIOD NO.    6, LENGTH =   28.00000    
                            -----------------------------------------------

                              NUMBER OF TIME STEPS =    28

                               MULTIPLIER FOR DELT =     1.000

                            INITIAL TIME STEP SIZE =   1.000000    
 USING INFILTRATION RATE FROM PREVIOUS STRESS 
 PERIOD.CURRENT PERIOD IS:            6

USING ET RATE FROM PREVIOUS STRESS PERIOD. CURRENT PERIOD IS:       6

 USING ET EXTINCTION DEPTH FROM PREVIOUS STRESS PERIOD. CURRENT PERIOD IS:       6

 USING EXTINCTION WATER CONTENT FROM PREVIOUS STRESS PERIOD. CURRENT PERIOD IS:       6

 PROCESSING AG STRESS PERIOD DATA

 READING AG STRESS PERIOD DATA

 READING IRRIGATION POND

 END PROCESSING AG STRESS PERIOD DATA OPTIONS
                                                   Max.-Head-Change                         Max.-Flux-Residual
  Residual-Control   Outer-Iter.   Inner-Iter.     Column Row Layer    Maximum-Head-Change  Column Row Layer    Maximum-Flux-Residual          L2-NORM 
          0                 1           6            67   49     2      -0.5197592441E+00      40   65    1         0.1748509542E+02      0.1786278760E+03
          0                 2           3            42   31     1       0.6930773321E-01      42   31    1         0.5428334329E+02      0.7072382460E+02
          0                 3           2             4   48     1      -0.3197545172E-02      42   31    1         0.2170176551E+01      0.1540578763E+02
          0                 4           2            63   38     1      -0.3446559439E-02      63   38    1        -0.5085856627E+01      0.9172347556E+01
          0                 5           2            64   38     1      -0.1635968941E-02      64   38    1        -0.2311089638E+01      0.4168967173E+01
          0                 6           1            64   38     1      -0.5307894291E-03      64   38    1        -0.7523262023E+00      0.1635525028E+01

    ------------------------------------------------
       NWT REQUIRED            6 OUTER ITERATIONS 
       AND A TOTAL OF         16 INNER ITERATIONS.
    ------------------------------------------------

 OUTPUT CONTROL FOR STRESS PERIOD    6   TIME STEP    1
    PRINT BUDGET
    SAVE BUDGET
    SAVE HEAD FOR ALL LAYERS



 STREAM LISTING     PERIOD      6   STEP        1

 LAYER ROW COL. STREAM  RCH.   FLOW INTO    STREAM     FLOW OUT OF   OVRLND.    DIRECT     STREAM      STREAM      STREAM     STREAM  STREAMBED   FLOW TO   CHNG. UNSAT. 
                SEG.NO.  NO.   STRM. RCH.    LOSS       STRM. RCH.   RUNOFF     PRECIP       ET         HEAD        DEPTH      WIDTH  CONDCTNC.   WAT. TAB.

   1   18   62     1     1    0.0000E+00 -8.0863E+00   8.9565E+00  8.702E-01  0.000E+00  0.000E+00  2.07300E+03  4.356E-04  3.000E+00  1.909E+03  0.000E+00  0.000E+00
   1   19   63     1     2    8.9565E+00 -5.1353E+01   6.1180E+01  8.702E-01  0.000E+00  0.000E+00  2.06300E+03  1.508E-03  3.000E+00  1.909E+03  0.000E+00  0.000E+00
   1   20   64     1     3    6.1180E+01 -8.0163E+01   1.4221E+02  8.702E-01  0.000E+00  0.000E+00  2.05400E+03  3.125E-03  3.000E+00  1.630E+03  0.000E+00  0.000E+00
   1   21   64     1     4    1.4221E+02 -8.4883E+01   2.2797E+02  8.702E-01  0.000E+00  0.000E+00  2.05101E+03  5.510E-03  3.000E+00  1.630E+03  0.000E+00  0.000E+00
   1   22   65     1     5    2.2797E+02 -1.2786E+01   2.4162E+02  8.702E-01  0.000E+00  0.000E+00  2.04801E+03  5.413E-03  3.000E+00  9.546E+02  0.000E+00  0.000E+00
   1   20   66     2     1    0.0000E+00 -5.0257E+01   5.0257E+01  0.000E+00  0.000E+00  0.000E+00  2.05300E+03  1.744E-03  3.000E+00  1.909E+03  0.000E+00  0.000E+00
   1   21   65     2     2    5.0257E+01  2.3627E+00   4.7894E+01  0.000E+00  0.000E+00  0.000E+00  2.05100E+03  2.625E-03  3.000E+00  1.630E+03  0.000E+00  0.000E+00
   1   22   65     2     3    4.7894E+01 -1.1337E+01   5.9231E+01  0.000E+00  0.000E+00  0.000E+00  2.04800E+03  2.012E-03  3.000E+00  6.750E+02  0.000E+00  0.000E+00
   1   22   65     3     1    3.0085E+02 -8.8392E+00   3.0969E+02  0.000E+00  0.000E+00  0.000E+00  2.04801E+03  5.712E-03  3.000E+00  6.750E+02  0.000E+00  0.000E+00
   1   23   65     3     2    3.0969E+02 -9.4933E+01   4.0463E+02  0.000E+00  0.000E+00  0.000E+00  2.04501E+03  1.006E-02  3.000E+00  1.630E+03  0.000E+00  0.000E+00
   1   24   66     3     3    4.0463E+02 -2.4029E+01   4.2865E+02  0.000E+00  0.000E+00  0.000E+00  2.04538E+03  3.845E-01  3.000E+00  1.909E+03  0.000E+00  0.000E+00
   1   25   67     3     4    4.2865E+02  1.0174E+01   4.1848E+02  0.000E+00  0.000E+00  0.000E+00  2.04501E+03  1.169E-02  3.000E+00  1.909E+03  0.000E+00  0.000E+00
   1   26   68     3     5    4.1848E+02 -1.4428E+01   4.3291E+02  0.000E+00  0.000E+00  0.000E+00  2.04201E+03  1.026E-02  3.000E+00  1.630E+03  0.000E+00  0.000E+00
   1   27   68     3     6    4.3291E+02  8.1586E+01   3.5132E+02  0.000E+00  0.000E+00  0.000E+00  2.04101E+03  8.646E-03  3.000E+00  1.630E+03  0.000E+00  0.000E+00
   1   28   69     3     7    3.5132E+02  9.7776E+01   2.5355E+02  0.000E+00  0.000E+00  0.000E+00  2.03601E+03  6.010E-03  3.000E+00  1.630E+03  9.824E+01 -4.600E-01
   1   29   69     3     8    2.5355E+02  4.5569E+01   2.0798E+02  0.000E+00  0.000E+00  0.000E+00  2.02900E+03  4.714E-03  3.000E+00  1.350E+03  0.000E+00  0.000E+00
   1   30   69     3     9    2.0798E+02  1.0744E+01   1.9723E+02  0.000E+00  0.000E+00  0.000E+00  2.02300E+03  4.185E-03  3.000E+00  1.630E+03  0.000E+00  0.000E+00
   1   31   70     3    10    1.9723E+02 -1.1253E+02   3.0976E+02  0.000E+00  0.000E+00  0.000E+00  2.01100E+03  4.786E-03  3.000E+00  1.630E+03  0.000E+00  0.000E+00
   1   32   70     3    11    3.0976E+02 -2.0907E+02   5.1884E+02  0.000E+00  0.000E+00  0.000E+00  2.00501E+03  7.748E-03  3.000E+00  1.350E+03  0.000E+00  0.000E+00
   1   33   70     3    12    5.1884E+02  1.2787E+01   5.0605E+02  0.000E+00  0.000E+00  0.000E+00  2.00301E+03  7.184E-03  3.000E+00  1.630E+03  0.000E+00  0.000E+00
   1   34   69     3    13    5.0605E+02 -2.9313E+01   5.3536E+02  0.000E+00  0.000E+00  0.000E+00  1.98601E+03  6.324E-03  3.000E+00  1.630E+03  0.000E+00  0.000E+00
   1   35   69     3    14    5.3536E+02 -4.3576E+01   5.7894E+02  0.000E+00  0.000E+00  0.000E+00  1.97301E+03  7.139E-03  3.000E+00  1.350E+03  0.000E+00  0.000E+00
   1   36   69     3    15    5.7894E+02  2.8220E+00   5.7612E+02  0.000E+00  0.000E+00  0.000E+00  1.96701E+03  7.994E-03  3.000E+00  1.350E+03  0.000E+00  0.000E+00
   1   37   69     3    16    5.7612E+02  8.9998E+00   5.6712E+02  0.000E+00  0.000E+00  0.000E+00  1.95901E+03  7.945E-03  3.000E+00  1.350E+03  0.000E+00  0.000E+00
   1   38   69     3    17    5.6712E+02  1.1073E+01   5.5605E+02  0.000E+00  0.000E+00  0.000E+00  1.95301E+03  8.504E-03  3.000E+00  1.630E+03  0.000E+00  0.000E+00
   1   39   70     3    18    5.5605E+02 -7.8430E+00   5.6389E+02  0.000E+00  0.000E+00  0.000E+00  1.94601E+03  7.603E-03  3.000E+00  9.546E+02  0.000E+00  0.000E+00
   1   25   49     4     1    0.0000E+00 -1.6840E+02   1.6840E+02  0.000E+00  0.000E+00  0.000E+00  2.03500E+03  2.474E-03  3.000E+00  1.909E+03  0.000E+00  0.000E+00
   1   26   50     4     2    1.6840E+02 -1.0235E+02   2.7074E+02  0.000E+00  0.000E+00  0.000E+00  2.02600E+03  4.770E-03  3.000E+00  1.909E+03  0.000E+00  0.000E+00
   1   27   51     4     3    2.7074E+02 -8.4432E+01   3.5518E+02  0.000E+00  0.000E+00  0.000E+00  2.01901E+03  6.133E-03  3.000E+00  1.630E+03  0.000E+00  0.000E+00
   1   28   51     4     4    3.5518E+02 -9.2254E+01   4.4743E+02  0.000E+00  0.000E+00  0.000E+00  2.01401E+03  7.520E-03  3.000E+00  1.630E+03  0.000E+00  0.000E+00
   1   29   52     4     5    4.4743E+02 -5.4975E+01   5.0240E+02  0.000E+00  0.000E+00  0.000E+00  2.00901E+03  8.320E-03  3.000E+00  1.630E+03  0.000E+00  0.000E+00
   1   30   52     4     6    5.0240E+02 -2.1754E+01   5.2416E+02  0.000E+00  0.000E+00  0.000E+00  2.00401E+03  8.240E-03  3.000E+00  1.350E+03  0.000E+00  0.000E+00
   1   31   52     4     7    5.2416E+02 -2.8691E+01   5.5285E+02  0.000E+00  0.000E+00  0.000E+00  1.99901E+03  9.437E-03  3.000E+00  1.350E+03  0.000E+00  0.000E+00
   1   32   52     4     8    5.5285E+02 -6.4536E+00   5.5930E+02  0.000E+00  0.000E+00  0.000E+00  1.99701E+03  9.779E-03  3.000E+00  1.630E+03  0.000E+00  0.000E+00
   1   33   53     4     9    5.5930E+02  2.2092E+00   5.5709E+02  0.000E+00  0.000E+00  0.000E+00  1.99101E+03  9.613E-03  3.000E+00  1.909E+03  0.000E+00  0.000E+00
   1   34   54     4    10    5.5709E+02  2.6253E+01   5.3084E+02  0.000E+00  0.000E+00  0.000E+00  1.98701E+03  9.770E-03  3.000E+00  1.909E+03  0.000E+00  0.000E+00
   1   35   55     4    11    5.3084E+02  3.2927E+01   4.9791E+02  0.000E+00  0.000E+00  0.000E+00  1.98201E+03  8.483E-03  3.000E+00  1.630E+03  0.000E+00  0.000E+00
   1   36   55     4    12    4.9791E+02 -6.1916E+01   5.5983E+02  0.000E+00  0.000E+00  0.000E+00  1.97601E+03  7.583E-03  3.000E+00  6.750E+02  0.000E+00  0.000E+00
   1   35   37     5     1    5.1875E+03 -6.4702E+01   5.2522E+03  0.000E+00  0.000E+00  0.000E+00  2.05403E+03  2.593E-02  3.000E+00  9.546E+02  0.000E+00  0.000E+00
   1   34   38     5     2    5.2522E+03 -1.3097E+02   5.3832E+03  0.000E+00  0.000E+00  0.000E+00  2.04603E+03  3.228E-02  3.000E+00  1.909E+03  0.000E+00  0.000E+00
   1   33   39     5     3    5.3832E+03 -2.4789E+02   5.6311E+03  0.000E+00  0.000E+00  0.000E+00  2.03804E+03  3.918E-02  3.000E+00  1.909E+03  0.000E+00  0.000E+00
   1   32   40     5     4    5.6311E+03  9.7823E+01   5.5333E+03  0.000E+00  0.000E+00  0.000E+00  2.03704E+03  3.902E-02  3.000E+00  1.630E+03  0.000E+00  0.000E+00
   1   32   41     5     5    5.5333E+03 -1.4575E+02   5.6790E+03  0.000E+00  0.000E+00  0.000E+00  2.03003E+03  3.274E-02  3.000E+00  1.350E+03  0.000E+00  0.000E+00
   1   32   42     5     6    5.6790E+03 -1.7947E+02   5.8585E+03  0.000E+00  0.000E+00  0.000E+00  2.02504E+03  3.915E-02  3.000E+00  1.350E+03  0.000E+00  0.000E+00
   1   32   43     5     7    5.8585E+03 -6.9879E+01   5.9284E+03  0.000E+00  0.000E+00  0.000E+00  2.02304E+03  4.395E-02  3.000E+00  1.630E+03  0.000E+00  0.000E+00
   1   33   44     5     8    5.9284E+03 -1.5688E+02   6.0853E+03  0.000E+00  0.000E+00  0.000E+00  2.01904E+03  4.451E-02  3.000E+00  1.909E+03  0.000E+00  0.000E+00
   1   34   45     5     9    6.0853E+03 -3.0730E+01   6.1160E+03  0.000E+00  0.000E+00  0.000E+00  2.01604E+03  4.116E-02  3.000E+00  1.630E+03  0.000E+00  0.000E+00
   1   34   46     5    10    6.1160E+03 -1.1079E+02   6.2268E+03  0.000E+00  0.000E+00  0.000E+00  2.01104E+03  3.781E-02  3.000E+00  1.350E+03  0.000E+00  0.000E+00
   1   34   47     5    11    6.2268E+03  5.3777E+00   6.2214E+03  0.000E+00  0.000E+00  0.000E+00  2.00703E+03  2.991E-02  3.000E+00  6.750E+02  0.000E+00  0.000E+00
   1   34   47     6     1    6.2417E+03  3.8779E+00   6.2379E+03  0.000E+00  0.000E+00  0.000E+00  2.00703E+03  2.769E-02  3.000E+00  6.750E+02  0.000E+00  0.000E+00
   1   34   48     6     2    6.2379E+03 -1.3706E+02   6.3749E+03  0.000E+00  0.000E+00  0.000E+00  2.00104E+03  3.630E-02  3.000E+00  1.630E+03  0.000E+00  0.000E+00
   1   35   49     6     3    6.3749E+03 -2.8060E+02   6.6555E+03  0.000E+00  0.000E+00  0.000E+00  1.99404E+03  3.891E-02  3.000E+00  1.630E+03  0.000E+00  0.000E+00
   1   35   50     6     4    6.6555E+03 -2.0786E+02   6.8634E+03  0.000E+00  0.000E+00  0.000E+00  1.99005E+03  4.763E-02  3.000E+00  1.350E+03  0.000E+00  0.000E+00
   1   35   51     6     5    6.8634E+03  2.3401E+01   6.8400E+03  0.000E+00  0.000E+00  0.000E+00  1.98905E+03  4.811E-02  3.000E+00  1.630E+03  0.000E+00  0.000E+00
   1   36   52     6     6    6.8400E+03 -1.3784E+02   6.9778E+03  0.000E+00  0.000E+00  0.000E+00  1.98404E+03  4.281E-02  3.000E+00  1.630E+03  0.000E+00  0.000E+00
   1   36   53     6     7    6.9778E+03 -2.3891E+02   7.2167E+03  0.000E+00  0.000E+00  0.000E+00  1.98006E+03  5.549E-02  3.000E+00  1.630E+03  0.000E+00  0.000E+00
   1   37   54     6     8    7.2167E+03 -5.0792E+01   7.2675E+03  0.000E+00  0.000E+00  0.000E+00  1.98006E+03  5.890E-02  3.000E+00  1.909E+03  0.000E+00  0.000E+00
   1   36   55     6     9    7.2675E+03 -5.1908E+01   7.3194E+03  0.000E+00  0.000E+00  0.000E+00  1.97604E+03  4.493E-02  3.000E+00  9.546E+02  0.000E+00  0.000E+00
   1   36   34     7     1    2.1911E+03 -5.2966E+01   2.2441E+03  0.000E+00  0.000E+00  0.000E+00  2.07701E+03  1.410E-02  3.000E+00  9.546E+02  0.000E+00  0.000E+00
   1   35   35     7     2    2.2441E+03 -1.0905E+02   2.3531E+03  0.000E+00  0.000E+00  0.000E+00  2.06702E+03  1.898E-02  3.000E+00  1.630E+03  0.000E+00  0.000E+00
   1   35   36     7     3    2.3531E+03  1.7210E+01   2.3359E+03  0.000E+00  0.000E+00  0.000E+00  2.06202E+03  1.894E-02  3.000E+00  1.350E+03  0.000E+00  0.000E+00
   1   35   37     7     4    2.3359E+03 -5.3451E+01   2.3894E+03  0.000E+00  0.000E+00  0.000E+00  2.05401E+03  1.453E-02  3.000E+00  6.750E+02  0.000E+00  0.000E+00
   1   52   49     8     1    0.0000E+00 -2.1210E+02   2.1210E+02  0.000E+00  0.000E+00  0.000E+00  2.12100E+03  2.928E-03  3.000E+00  1.909E+03  0.000E+00  0.000E+00
   1   51   48     8     2    2.1210E+02 -2.0412E+02   4.1622E+02  0.000E+00  0.000E+00  0.000E+00  2.11701E+03  8.963E-03  3.000E+00  1.909E+03  0.000E+00  0.000E+00
   1   50   47     8     3    4.1622E+02  9.7776E+01   3.1844E+02  0.000E+00  0.000E+00  0.000E+00  2.11701E+03  7.626E-03  3.000E+00  1.630E+03  9.775E+01  2.232E-02
   1   49   47     8     4    3.1844E+02 -2.1674E+02   5.3518E+02  0.000E+00  0.000E+00  0.000E+00  2.10901E+03  7.804E-03  3.000E+00  1.630E+03  0.000E+00  0.000E+00
   1   48   46     8     5    5.3518E+02  6.4357E+00   5.2875E+02  0.000E+00  0.000E+00  0.000E+00  2.10701E+03  1.172E-02  3.000E+00  1.630E+03  0.000E+00  0.000E+00
   1   47   46     8     6    5.2875E+02  8.7129E+01   4.4162E+02  0.000E+00  0.000E+00  0.000E+00  2.10501E+03  1.049E-02  3.000E+00  1.350E+03  0.000E+00  0.000E+00
   1   46   46     8     7    4.4162E+02  8.1000E+01   3.6062E+02  0.000E+00  0.000E+00  0.000E+00  2.10301E+03  8.283E-03  3.000E+00  1.350E+03  8.111E+01 -1.067E-01
   1   45   46     8     8    3.6062E+02  8.1000E+01   2.7962E+02  0.000E+00  0.000E+00  0.000E+00  2.09901E+03  5.876E-03  3.000E+00  1.350E+03  8.129E+01 -2.895E-01
   1   44   46     8     9    2.7962E+02  8.1000E+01   1.9862E+02  0.000E+00  0.000E+00  0.000E+00  2.09100E+03  4.298E-03  3.000E+00  1.350E+03  8.163E+01 -6.267E-01
   1   43   46     8    10    1.9862E+02  1.4735E+02   5.1270E+01  0.000E+00  0.000E+00  0.000E+00  2.08000E+03  2.911E-03  3.000E+00  1.350E+03  0.000E+00  0.000E+00
   1   42   46     8    11    5.1270E+01  5.1270E+01   0.0000E+00  0.000E+00  0.000E+00  0.000E+00  2.07200E+03  3.999E-04  3.000E+00  1.630E+03  5.178E+01 -5.117E-01
   1   41   45     8    12    0.0000E+00 -8.5051E+01   8.5051E+01  0.000E+00  0.000E+00  0.000E+00  2.06000E+03  1.645E-03  3.000E+00  1.630E+03  0.000E+00  0.000E+00
   1   40   45     8    13    8.5051E+01  8.1000E+01   4.0513E+00  0.000E+00  0.000E+00  0.000E+00  2.05400E+03  1.721E-03  3.000E+00  1.350E+03  8.122E+01 -2.216E-01
   1   39   45     8    14    4.0513E+00  4.0513E+00   0.0000E+00  0.000E+00  0.000E+00  0.000E+00  2.04600E+03  8.370E-05  3.000E+00  1.350E+03  6.325E+00 -2.275E+00
   1   38   45     8    15    0.0000E+00  0.0000E+00   0.0000E+00  0.000E+00  0.000E+00  0.000E+00  2.03500E+03  0.000E+00  3.000E+00  1.350E+03  0.000E+00  0.000E+00
   1   37   45     8    16    0.0000E+00  0.0000E+00   0.0000E+00  0.000E+00  0.000E+00  0.000E+00  2.02700E+03  0.000E+00  3.000E+00  1.630E+03  0.000E+00  0.000E+00
   1   36   46     8    17    0.0000E+00  0.0000E+00   0.0000E+00  0.000E+00  0.000E+00  0.000E+00  2.02100E+03  0.000E+00  3.000E+00  1.630E+03  0.000E+00  0.000E+00
   1   35   46     8    18    0.0000E+00  0.0000E+00   0.0000E+00  0.000E+00  0.000E+00  0.000E+00  2.01400E+03  0.000E+00  3.000E+00  1.630E+03  0.000E+00  0.000E+00
   1   34   47     8    19    0.0000E+00 -2.0316E+01   2.0316E+01  0.000E+00  0.000E+00  0.000E+00  2.00700E+03  6.584E-04  3.000E+00  9.546E+02  0.000E+00  0.000E+00
   1   37   26     9     1    0.0000E+00  0.0000E+00   0.0000E+00  0.000E+00  0.000E+00  0.000E+00  2.14700E+03  0.000E+00  3.000E+00  1.350E+03  0.000E+00  0.000E+00
   1   37   27     9     2    0.0000E+00 -6.2647E+01   6.2647E+01  0.000E+00  0.000E+00  0.000E+00  2.13400E+03  1.215E-03  3.000E+00  1.350E+03  0.000E+00  0.000E+00
   1   37   28     9     3    6.2647E+01 -1.4253E+02   2.0518E+02  0.000E+00  0.000E+00  0.000E+00  2.12500E+03  3.211E-03  3.000E+00  1.630E+03  0.000E+00  0.000E+00
   1   36   29     9     4    2.0518E+02 -2.0199E+00   2.0720E+02  0.000E+00  0.000E+00  0.000E+00  2.11500E+03  4.229E-03  3.000E+00  1.630E+03  0.000E+00  0.000E+00
   1   36   30     9     5    2.0720E+02 -8.9411E+01   2.9661E+02  0.000E+00  0.000E+00  0.000E+00  2.10700E+03  4.584E-03  3.000E+00  1.350E+03  0.000E+00  0.000E+00
   1   36   31     9     6    2.9661E+02 -2.0458E+02   5.0119E+02  0.000E+00  0.000E+00  0.000E+00  2.09801E+03  6.151E-03  3.000E+00  1.350E+03  0.000E+00  0.000E+00
   1   36   32     9     7    5.0119E+02 -1.5100E+02   6.5219E+02  0.000E+00  0.000E+00  0.000E+00  2.09101E+03  7.987E-03  3.000E+00  1.350E+03  0.000E+00  0.000E+00
   1   36   33     9     8    6.5219E+02 -1.3917E+02   7.9136E+02  0.000E+00  0.000E+00  0.000E+00  2.08401E+03  9.138E-03  3.000E+00  1.350E+03  0.000E+00  0.000E+00
   1   36   34     9     9    7.9136E+02 -4.1898E+01   8.3326E+02  0.000E+00  0.000E+00  0.000E+00  2.07701E+03  7.517E-03  3.000E+00  6.750E+02  0.000E+00  0.000E+00
   1   58   37    10     1    0.0000E+00 -1.3174E+02   1.3174E+02  0.000E+00  0.000E+00  0.000E+00  2.15000E+03  3.164E-03  3.000E+00  1.350E+03  0.000E+00  0.000E+00
   1   57   37    10     2    1.3174E+02 -9.4291E+01   2.2603E+02  0.000E+00  0.000E+00  0.000E+00  2.14701E+03  5.154E-03  3.000E+00  1.630E+03  0.000E+00  0.000E+00
   1   56   38    10     3    2.2603E+02 -1.7278E+01   2.4331E+02  0.000E+00  0.000E+00  0.000E+00  2.14301E+03  5.626E-03  3.000E+00  1.630E+03  0.000E+00  0.000E+00
   1   55   38    10     4    2.4331E+02 -1.7265E+02   4.1596E+02  0.000E+00  0.000E+00  0.000E+00  2.13801E+03  6.754E-03  3.000E+00  1.350E+03  0.000E+00  0.000E+00
   1   54   38    10     5    4.1596E+02 -1.1609E+02   5.3205E+02  0.000E+00  0.000E+00  0.000E+00  2.13501E+03  9.155E-03  3.000E+00  1.350E+03  0.000E+00  0.000E+00
   1   53   38    10     6    5.3205E+02 -1.1038E+02   6.4243E+02  0.000E+00  0.000E+00  0.000E+00  2.13201E+03  1.041E-02  3.000E+00  1.350E+03  0.000E+00  0.000E+00
   1   52   38    10     7    6.4243E+02 -1.7210E+02   8.1453E+02  0.000E+00  0.000E+00  0.000E+00  2.12901E+03  1.416E-02  3.000E+00  1.630E+03  0.000E+00  0.000E+00
   1   51   39    10     8    8.1453E+02  4.0422E+00   8.1049E+02  0.000E+00  0.000E+00  0.000E+00  2.12802E+03  1.512E-02  3.000E+00  1.630E+03  0.000E+00  0.000E+00
   1   50   39    10     9    8.1049E+02 -8.2548E+01   8.9304E+02  0.000E+00  0.000E+00  0.000E+00  2.12501E+03  1.315E-02  3.000E+00  1.630E+03  0.000E+00  0.000E+00
   1   49   38    10    10    8.9304E+02 -1.5180E+02   1.0448E+03  0.000E+00  0.000E+00  0.000E+00  2.12101E+03  1.490E-02  3.000E+00  1.909E+03  0.000E+00  0.000E+00
   1   48   37    10    11    1.0448E+03  2.0744E+01   1.0241E+03  0.000E+00  0.000E+00  0.000E+00  2.11801E+03  1.318E-02  3.000E+00  1.909E+03  0.000E+00  0.000E+00
   1   47   36    10    12    1.0241E+03 -3.3755E+02   1.3616E+03  0.000E+00  0.000E+00  0.000E+00  2.10901E+03  1.369E-02  3.000E+00  1.630E+03  0.000E+00  0.000E+00
   1   46   36    10    13    1.3616E+03 -1.3222E+02   1.4939E+03  0.000E+00  0.000E+00  0.000E+00  2.10602E+03  1.694E-02  3.000E+00  1.350E+03  0.000E+00  0.000E+00
   1   45   36    10    14    1.4939E+03 -1.6758E+02   1.6614E+03  0.000E+00  0.000E+00  0.000E+00  2.10202E+03  1.799E-02  3.000E+00  1.350E+03  0.000E+00  0.000E+00
   1   44   36    10    15    1.6614E+03 -9.4787E+01   1.7562E+03  0.000E+00  0.000E+00  0.000E+00  2.09902E+03  1.976E-02  3.000E+00  1.350E+03  0.000E+00  0.000E+00
   1   43   36    10    16    1.7562E+03  4.8320E-01   1.7557E+03  0.000E+00  0.000E+00  0.000E+00  2.09602E+03  1.882E-02  3.000E+00  1.630E+03  0.000E+00  0.000E+00
   1   42   37    10    17    1.7557E+03  9.7776E+01   1.6580E+03  0.000E+00  0.000E+00  0.000E+00  2.09002E+03  1.557E-02  3.000E+00  1.630E+03  9.770E+01  7.657E-02
   1   41   37    10    18    1.6580E+03 -2.3046E+02   1.8884E+03  0.000E+00  0.000E+00  0.000E+00  2.08002E+03  1.505E-02  3.000E+00  1.350E+03  0.000E+00  0.000E+00
   1   40   37    10    19    1.8884E+03 -3.3082E+02   2.2193E+03  0.000E+00  0.000E+00  0.000E+00  2.07402E+03  2.067E-02  3.000E+00  1.630E+03  0.000E+00  0.000E+00
   1   39   38    10    20    2.2193E+03 -3.1101E+01   2.2504E+03  0.000E+00  0.000E+00  0.000E+00  2.07102E+03  2.345E-02  3.000E+00  1.630E+03  0.000E+00  0.000E+00
   1   38   38    10    21    2.2504E+03  1.6131E+01   2.2342E+03  0.000E+00  0.000E+00  0.000E+00  2.06702E+03  2.111E-02  3.000E+00  1.630E+03  0.000E+00  0.000E+00
   1   37   37    10    22    2.2342E+03 -3.0082E+02   2.5350E+03  0.000E+00  0.000E+00  0.000E+00  2.06102E+03  2.191E-02  3.000E+00  1.630E+03  0.000E+00  0.000E+00
   1   36   37    10    23    2.5350E+03 -2.1195E+02   2.7470E+03  0.000E+00  0.000E+00  0.000E+00  2.05702E+03  2.450E-02  3.000E+00  1.350E+03  0.000E+00  0.000E+00
   1   35   37    10    24    2.7470E+03 -5.1179E+01   2.7982E+03  0.000E+00  0.000E+00  0.000E+00  2.05402E+03  1.789E-02  3.000E+00  6.750E+02  0.000E+00  0.000E+00
   1   36   55    11     1    7.8793E+03 -4.1111E+01   7.9204E+03  0.000E+00  0.000E+00  0.000E+00  1.97604E+03  3.840E-02  3.000E+00  6.750E+02  0.000E+00  0.000E+00
   1   36   56    11     2    7.9204E+03 -6.3065E+01   7.9834E+03  0.000E+00  0.000E+00  0.000E+00  1.97506E+03  6.476E-02  3.000E+00  1.630E+03  0.000E+00  0.000E+00
   1   37   57    11     3    7.9834E+03 -1.4283E+02   8.1263E+03  0.000E+00  0.000E+00  0.000E+00  1.97307E+03  6.526E-02  3.000E+00  1.630E+03  0.000E+00  0.000E+00
   1   37   58    11     4    8.1263E+03 -9.8302E+01   8.2246E+03  0.000E+00  0.000E+00  0.000E+00  1.97209E+03  8.653E-02  3.000E+00  1.350E+03  0.000E+00  0.000E+00
   1   37   59    11     5    8.2246E+03 -2.0485E+00   8.2266E+03  0.000E+00  0.000E+00  0.000E+00  1.97207E+03  7.054E-02  3.000E+00  1.350E+03  0.000E+00  0.000E+00
   1   37   60    11     6    8.2266E+03 -2.4084E+01   8.2507E+03  0.000E+00  0.000E+00  0.000E+00  1.97006E+03  5.675E-02  3.000E+00  1.630E+03  0.000E+00  0.000E+00
   1   38   61    11     7    8.2507E+03 -1.0059E+02   8.3513E+03  0.000E+00  0.000E+00  0.000E+00  1.96705E+03  5.154E-02  3.000E+00  1.630E+03  0.000E+00  0.000E+00
   1   38   62    11     8    8.3513E+03 -9.8101E+01   8.4494E+03  0.000E+00  0.000E+00  0.000E+00  1.96305E+03  4.713E-02  3.000E+00  6.750E+02  0.000E+00  0.000E+00
   1   51   11    12     1    0.0000E+00 -4.8811E+02   4.8811E+02  0.000E+00  0.000E+00  0.000E+00  2.38700E+03  4.620E-03  3.000E+00  1.909E+03  0.000E+00  0.000E+00
   1   50   12    12     2    4.8811E+02 -6.1304E+01   5.4941E+02  0.000E+00  0.000E+00  0.000E+00  2.37501E+03  6.925E-03  3.000E+00  1.630E+03  0.000E+00  0.000E+00
   1   49   12    12     3    5.4941E+02 -3.8589E+02   9.3530E+02  0.000E+00  0.000E+00  0.000E+00  2.36501E+03  8.972E-03  3.000E+00  1.630E+03  0.000E+00  0.000E+00
   1   48   13    12     4    9.3530E+02 -1.8116E+02   1.1165E+03  0.000E+00  0.000E+00  0.000E+00  2.35601E+03  1.169E-02  3.000E+00  1.630E+03  0.000E+00  0.000E+00
   1   48   14    12     5    1.1165E+03 -1.6567E+02   1.2821E+03  0.000E+00  0.000E+00  0.000E+00  2.35001E+03  1.260E-02  3.000E+00  1.630E+03  0.000E+00  0.000E+00
   1   47   15    12     6    1.2821E+03 -1.7064E+02   1.4528E+03  0.000E+00  0.000E+00  0.000E+00  2.34001E+03  1.390E-02  3.000E+00  1.630E+03  0.000E+00  0.000E+00
   1   47   16    12     7    1.4528E+03 -1.2679E+02   1.5796E+03  0.000E+00  0.000E+00  0.000E+00  2.33502E+03  1.623E-02  3.000E+00  1.630E+03  0.000E+00  0.000E+00
   1   46   17    12     8    1.5796E+03  7.7084E+01   1.5025E+03  0.000E+00  0.000E+00  0.000E+00  2.32902E+03  1.524E-02  3.000E+00  1.630E+03  0.000E+00  0.000E+00
   1   46   18    12     9    1.5025E+03  1.7019E+02   1.3323E+03  0.000E+00  0.000E+00  0.000E+00  2.32101E+03  1.180E-02  3.000E+00  1.350E+03  0.000E+00  0.000E+00
   1   46   19    12    10    1.3323E+03 -1.5900E+02   1.4913E+03  0.000E+00  0.000E+00  0.000E+00  2.30601E+03  1.339E-02  3.000E+00  1.350E+03  0.000E+00  0.000E+00
   1   46   20    12    11    1.4913E+03  9.7776E+01   1.3935E+03  0.000E+00  0.000E+00  0.000E+00  2.30601E+03  1.143E-02  3.000E+00  1.630E+03  9.774E+01  3.654E-02
   1   45   21    12    12    1.3935E+03 -5.2039E+01   1.4455E+03  0.000E+00  0.000E+00  0.000E+00  2.27401E+03  1.004E-02  3.000E+00  1.909E+03  0.000E+00  0.000E+00
   1   44   22    12    13    1.4455E+03 -1.4021E+02   1.5858E+03  0.000E+00  0.000E+00  0.000E+00  2.25001E+03  1.130E-02  3.000E+00  1.909E+03  0.000E+00  0.000E+00
   1   43   23    12    14    1.5858E+03  1.5171E+02   1.4340E+03  0.000E+00  0.000E+00  0.000E+00  2.23101E+03  1.136E-02  3.000E+00  1.909E+03  0.000E+00  0.000E+00
   1   42   24    12    15    1.4340E+03 -7.9811E+01   1.5139E+03  0.000E+00  0.000E+00  0.000E+00  2.20801E+03  1.169E-02  3.000E+00  1.630E+03  0.000E+00  0.000E+00
   1   42   25    12    16    1.5139E+03 -1.7869E+01   1.5317E+03  0.000E+00  0.000E+00  0.000E+00  2.20001E+03  1.285E-02  3.000E+00  1.350E+03  0.000E+00  0.000E+00
   1   42   26    12    17    1.5317E+03  1.2440E+02   1.4073E+03  0.000E+00  0.000E+00  0.000E+00  2.18801E+03  1.114E-02  3.000E+00  1.350E+03  0.000E+00  0.000E+00
   1   42   27    12    18    1.4073E+03 -2.5808E+02   1.6654E+03  0.000E+00  0.000E+00  0.000E+00  2.17001E+03  1.156E-02  3.000E+00  1.350E+03  0.000E+00  0.000E+00
   1   42   28    12    19    1.6654E+03 -8.5636E+01   1.7510E+03  0.000E+00  0.000E+00  0.000E+00  2.15901E+03  1.317E-02  3.000E+00  1.630E+03  0.000E+00  0.000E+00
   1   41   29    12    20    1.7510E+03  1.5950E+02   1.5915E+03  0.000E+00  0.000E+00  0.000E+00  2.14201E+03  1.309E-02  3.000E+00  1.909E+03  0.000E+00  0.000E+00
   1   40   30    12    21    1.5915E+03  5.8555E+01   1.5330E+03  0.000E+00  0.000E+00  0.000E+00  2.12701E+03  1.323E-02  3.000E+00  1.909E+03  0.000E+00  0.000E+00
   1   39   31    12    22    1.5330E+03  1.1455E+02   1.4184E+03  0.000E+00  0.000E+00  0.000E+00  2.11501E+03  1.325E-02  3.000E+00  1.909E+03  1.144E+02  1.300E-01
   1   38   32    12    23    1.4184E+03  1.1455E+02   1.3039E+03  0.000E+00  0.000E+00  0.000E+00  2.10301E+03  1.232E-02  3.000E+00  1.909E+03  1.144E+02  1.099E-01
   1   37   33    12    24    1.3039E+03  2.5483E+00   1.3013E+03  0.000E+00  0.000E+00  0.000E+00  2.08901E+03  1.200E-02  3.000E+00  1.909E+03  0.000E+00  0.000E+00
   1   36   34    12    25    1.3013E+03 -5.6524E+01   1.3579E+03  0.000E+00  0.000E+00  0.000E+00  2.07701E+03  1.038E-02  3.000E+00  9.546E+02  0.000E+00  0.000E+00
   1   38   62    13     1    8.6306E+03 -1.0526E+02   8.7359E+03  0.000E+00  0.000E+00  0.000E+00  1.96304E+03  3.652E-02  3.000E+00  6.750E+02  0.000E+00  0.000E+00
   1   38   63    13     2    8.7359E+03 -1.3041E+01   8.7489E+03  0.000E+00  0.000E+00  0.000E+00  1.96539E+03  2.388E+00  3.000E+00  1.350E+03  0.000E+00  0.000E+00
   1   38   64    13     3    8.7489E+03  1.3829E+01   8.7351E+03  0.000E+00  0.000E+00  0.000E+00  1.96539E+03  2.388E+00  3.000E+00  1.350E+03  0.000E+00  0.000E+00
   1   38   65    13     4    8.7351E+03 -4.3261E+01   8.7783E+03  0.000E+00  0.000E+00  0.000E+00  1.96306E+03  6.486E-02  3.000E+00  1.350E+03  0.000E+00  0.000E+00
   1   38   66    13     5    8.7783E+03 -7.8353E+01   8.8567E+03  0.000E+00  0.000E+00  0.000E+00  1.96006E+03  5.587E-02  3.000E+00  1.350E+03  0.000E+00  0.000E+00
   1   38   67    13     6    8.8567E+03 -5.2262E+01   8.9090E+03  0.000E+00  0.000E+00  0.000E+00  1.95805E+03  5.368E-02  3.000E+00  1.630E+03  0.000E+00  0.000E+00
   1   39   68    13     7    8.9090E+03 -2.5361E+01   8.9343E+03  0.000E+00  0.000E+00  0.000E+00  1.95305E+03  4.836E-02  3.000E+00  1.630E+03  0.000E+00  0.000E+00
   1   39   69    13     8    8.9343E+03 -8.1779E+01   9.0161E+03  0.000E+00  0.000E+00  0.000E+00  1.94805E+03  5.105E-02  3.000E+00  1.350E+03  0.000E+00  0.000E+00
   1   39   70    13     9    9.0161E+03  1.8697E+01   8.9974E+03  0.000E+00  0.000E+00  0.000E+00  1.94604E+03  4.352E-02  3.000E+00  6.750E+02  0.000E+00  0.000E+00
   1   46   61    14     1    0.0000E+00 -2.5298E+01   2.5298E+01  0.000E+00  0.000E+00  0.000E+00  2.01700E+03  8.096E-04  3.000E+00  1.350E+03  0.000E+00  0.000E+00
   1   45   61    14     2    2.5298E+01  2.5298E+01   0.0000E+00  0.000E+00  0.000E+00  0.000E+00  2.01000E+03  2.960E-04  3.000E+00  1.350E+03  0.000E+00  0.000E+00
   1   44   61    14     3    0.0000E+00  0.0000E+00   0.0000E+00  0.000E+00  0.000E+00  0.000E+00  2.00600E+03  0.000E+00  3.000E+00  1.350E+03  0.000E+00  0.000E+00
   1   43   61    14     4    0.0000E+00  0.0000E+00   0.0000E+00  0.000E+00  0.000E+00  0.000E+00  1.99900E+03  0.000E+00  3.000E+00  1.350E+03  0.000E+00  0.000E+00
   1   42   61    14     5    0.0000E+00  0.0000E+00   0.0000E+00  0.000E+00  0.000E+00  0.000E+00  1.99300E+03  0.000E+00  3.000E+00  1.350E+03  0.000E+00  0.000E+00
   1   41   61    14     6    0.0000E+00  0.0000E+00   0.0000E+00  0.000E+00  0.000E+00  0.000E+00  1.98500E+03  0.000E+00  3.000E+00  1.350E+03  0.000E+00  0.000E+00
   1   40   61    14     7    0.0000E+00 -3.8258E+01   3.8258E+01  0.000E+00  0.000E+00  0.000E+00  1.97800E+03  1.087E-03  3.000E+00  1.350E+03  0.000E+00  0.000E+00
   1   39   61    14     8    3.8258E+01  3.8258E+01   0.0000E+00  0.000E+00  0.000E+00  0.000E+00  1.97300E+03  3.657E-04  3.000E+00  1.630E+03  0.000E+00  0.000E+00
   1   38   62    14     9    0.0000E+00 -1.8122E+02   1.8122E+02  0.000E+00  0.000E+00  0.000E+00  1.96300E+03  2.627E-03  3.000E+00  9.546E+02  0.000E+00  0.000E+00
   1   39   70    15     1    9.5613E+03  1.4695E+01   9.5466E+03  0.000E+00  0.000E+00  0.000E+00  1.94604E+03  3.759E-02  3.000E+00  6.750E+02  0.000E+00  0.000E+00
   1   39   71    15     2    9.5466E+03 -1.1333E+02   9.6599E+03  0.000E+00  0.000E+00  0.000E+00  1.94206E+03  6.222E-02  3.000E+00  1.630E+03  0.000E+00  0.000E+00
   1   40   72    15     3    9.6599E+03 -3.4893E+01   9.6948E+03  0.000E+00  0.000E+00  0.000E+00  1.94107E+03  6.684E-02  3.000E+00  1.630E+03  0.000E+00  0.000E+00
   1   40   73    15     4    9.6948E+03 -5.0802E+01   9.7456E+03  0.000E+00  0.000E+00  0.000E+00  1.93806E+03  5.924E-02  3.000E+00  1.350E+03  0.000E+00  0.000E+00
   1   40   74    15     5    9.7456E+03 -2.6620E+01   9.7722E+03  0.000E+00  0.000E+00  0.000E+00  1.93606E+03  6.349E-02  3.000E+00  1.350E+03  0.000E+00  0.000E+00
   1   40   75    15     6    9.7722E+03 -1.3123E+00   9.7736E+03  0.000E+00  0.000E+00  0.000E+00  1.93406E+03  5.627E-02  3.000E+00  6.750E+02  0.000E+00  0.000E+00
   1   40   75    16     1    1.0685E+04 -4.9124E+00   1.0690E+04  0.000E+00  0.000E+00  0.000E+00  1.93405E+03  5.093E-02  3.000E+00  6.750E+02  0.000E+00  0.000E+00
   1   40   76    16     2    1.0690E+04  0.0000E+00   1.0690E+04  0.000E+00  0.000E+00  0.000E+00  1.93307E+03  7.310E-02  3.000E+00  0.000E+00  0.000E+00  0.000E+00
   1   55   73    17     1    0.0000E+00 -5.0132E+00   5.0132E+00  0.000E+00  0.000E+00  0.000E+00  2.04100E+03  2.727E-04  3.000E+00  1.350E+03  0.000E+00  0.000E+00
   1   54   73    17     2    5.0132E+00  5.0132E+00   0.0000E+00  0.000E+00  0.000E+00  0.000E+00  2.02900E+03  8.868E-05  3.000E+00  1.350E+03  5.063E+00 -4.972E-02
   1   53   73    17     3    0.0000E+00  0.0000E+00   0.0000E+00  0.000E+00  0.000E+00  0.000E+00  2.01700E+03  0.000E+00  3.000E+00  1.350E+03  0.000E+00  0.000E+00
   1   52   73    17     4    0.0000E+00 -5.7903E+01   5.7903E+01  0.000E+00  0.000E+00  0.000E+00  2.01000E+03  1.284E-03  3.000E+00  1.630E+03  0.000E+00  0.000E+00
   1   51   72    17     5    5.7903E+01 -2.4522E+02   3.0313E+02  0.000E+00  0.000E+00  0.000E+00  1.99800E+03  3.972E-03  3.000E+00  1.630E+03  0.000E+00  0.000E+00
   1   50   72    17     6    3.0313E+02 -1.7313E+01   3.2044E+02  0.000E+00  0.000E+00  0.000E+00  1.99301E+03  5.785E-03  3.000E+00  1.350E+03  0.000E+00  0.000E+00
   1   49   72    17     7    3.2044E+02 -8.3232E+01   4.0367E+02  0.000E+00  0.000E+00  0.000E+00  1.98601E+03  6.040E-03  3.000E+00  1.350E+03  0.000E+00  0.000E+00
   1   48   72    17     8    4.0367E+02 -1.2505E+02   5.2873E+02  0.000E+00  0.000E+00  0.000E+00  1.97901E+03  7.030E-03  3.000E+00  1.350E+03  0.000E+00  0.000E+00
   1   47   72    17     9    5.2873E+02 -1.8959E+02   7.1832E+02  0.000E+00  0.000E+00  0.000E+00  1.97201E+03  8.558E-03  3.000E+00  1.350E+03  0.000E+00  0.000E+00
   1   46   72    17    10    7.1832E+02 -2.2833E+01   7.4115E+02  0.000E+00  0.000E+00  0.000E+00  1.96601E+03  9.634E-03  3.000E+00  1.350E+03  0.000E+00  0.000E+00
   1   45   72    17    11    7.4115E+02 -7.4350E+00   7.4859E+02  0.000E+00  0.000E+00  0.000E+00  1.96001E+03  9.853E-03  3.000E+00  1.630E+03  0.000E+00  0.000E+00
   1   44   73    17    12    7.4859E+02 -2.2660E+01   7.7125E+02  0.000E+00  0.000E+00  0.000E+00  1.95201E+03  1.020E-02  3.000E+00  1.630E+03  0.000E+00  0.000E+00
   1   43   73    17    13    7.7125E+02 -4.2294E+01   8.1354E+02  0.000E+00  0.000E+00  0.000E+00  1.94701E+03  1.143E-02  3.000E+00  1.350E+03  0.000E+00  0.000E+00
   1   42   73    17    14    8.1354E+02 -7.5363E+00   8.2108E+02  0.000E+00  0.000E+00  0.000E+00  1.94401E+03  1.189E-02  3.000E+00  1.630E+03  0.000E+00  0.000E+00
   1   41   74    17    15    8.2108E+02 -4.6823E+01   8.6790E+02  0.000E+00  0.000E+00  0.000E+00  1.93801E+03  1.232E-02  3.000E+00  1.909E+03  0.000E+00  0.000E+00
   1   40   75    17    16    8.6790E+02 -4.3430E+01   9.1133E+02  0.000E+00  0.000E+00  0.000E+00  1.93401E+03  1.271E-02  3.000E+00  9.546E+02  0.000E+00  0.000E+00
   1   37   55    18     1    0.0000E+00  0.0000E+00   0.0000E+00  0.000E+00  0.000E+00  0.000E+00  2.00700E+03  0.000E+00  3.000E+00  1.630E+03  0.000E+00  0.000E+00
   1   36   54    19     1    0.0000E+00  0.0000E+00   0.0000E+00  0.000E+00  0.000E+00  0.000E+00  2.00700E+03  0.000E+00  3.000E+00  1.630E+03  0.000E+00  0.000E+00



1
  VOLUMETRIC BUDGET FOR UNSATURATED ZONE BENEATH STREAMS AT END OF TIME STEP     1 STRESS PERIOD   6
  ------------------------------------------------------------------------------------------------

    CUMULATIVE VOLUMES             L**3    RATES FOR THIS TIME STEP         L**3/T
    ------------------                     ------------------------


          STREAM LOSS =       136135.6250            STREAM LOSS =         1004.5394
    CHANGE IN STORAGE =           49.7186      CHANGE IN STORAGE =           -4.1651
       RECHARGE TO GW =       136086.2344         RECHARGE TO GW =         1008.7042

             TOTAL IN =       136135.6250               TOTAL IN =         1008.7045

            TOTAL OUT =       136135.9531              TOTAL OUT =         1008.7042

             IN - OUT =           -0.3281               IN - OUT =        2.4414E-04

  PERCENT DISCREPANCY =           -0.00      PERCENT DISCREPANCY =             0.00



 ***WARNING***NUZTOP IS 3 AND ALL LAYERS  IN ROW           39  AND COLUMN           76  ARE INACTIVE.
 UNSATURATED FLOW WILL NOT BE ADDED TO ANY LAYER-- SOME WATER MAY FLOW PAST LOWEST LAYER
 ***WARNING***NUZTOP IS 3 AND ALL LAYERS  IN ROW           40  AND COLUMN           76  ARE INACTIVE.
 UNSATURATED FLOW WILL NOT BE ADDED TO ANY LAYER-- SOME WATER MAY FLOW PAST LOWEST LAYER


UNSATURATED ZONE PACKAGE VOLUMETRIC BUDGET FOR  TIME STEP     1 STRESS PERIOD    6
  ------------------------------------------------------------------------------



     CUMULATIVE VOLUMES      L**3       RATES FOR THIS TIME STEP      L**3/T
     ------------------                 ------------------------

           IN:                                      IN:
           ---                                      ---
        INFILTRATION =       26653.0419          INFILTRATION =       0.0000E+00

          OUT:                                     OUT:
          ----                                     ----
              UZF ET =      657978.8626                UZF ET =          22.1293
        UZF RECHARGE =     2198892.9219          UZF RECHARGE =       11880.1363

            IN - OUT =    -2830218.7425              IN - OUT =      -11902.2656

          STORAGE:                                 STORAGE:
          --------                                 --------
      STORAGE CHANGE =    -2828240.2475        STORAGE CHANGE =      -11902.1954

 PERCENT DISCREPANCY IS DIFFERENCE BETWEEN IN-OUT MINUS CHANGE IN STORAGE
 DIVIDED BY THE AVERAGE OF IN AND OUT TIMES 100

 PERCENT DISCREPANCY =          -0.02     PERCENT DISCREPANCY =          -0.00








        GW IRRIGATION     PERIOD    6   STEP   1

1
  VOLUMETRIC BUDGET FOR AGRICULTURAL FIELDS AT  END OF TIME STEP    1, STRESS PERIOD   6
  ------------------------------------------------------------------------------

     CUMULATIVE VOLUMES      L**3       RATES FOR THIS TIME STEP      L**3/T
     ------------------                 ------------------------

           IN:                                      IN:
           ---                                      ---
               AG WELLS  =           0.0000                 AG WELLS  =          -0.0000
      DIVERSION SEGMENTS =           0.0000        DIVERSION SEGMENTS =           0.0000
       IRRIGATION PONDS  =           0.0000         IRRIGATION PONDS  =           0.0000
           GW IRRIGATION =           0.0000             GW IRRIGATION =           0.0000
           SW IRRIGATION =           0.0000             SW IRRIGATION =           0.0000
        SYSTEM LOSSES GW =           0.0000          SYSTEM LOSSES GW =           0.0000
        SYSTEM LOSSES SW =           0.0000          SYSTEM LOSSES SW =          -0.0000

                TOTAL IN =           0.0000                  TOTAL IN =           0.0000

          OUT:                                     OUT:
          ----                                     ----
               AG WELLS  =           0.0000                 AG WELLS  =           0.0000
      DIVERSION SEGMENTS =           0.0000        DIVERSION SEGMENTS =           0.0000
       IRRIGATION PONDS  =           0.0000         IRRIGATION PONDS  =           0.0000
           GW IRRIGATION =           0.0000             GW IRRIGATION =           0.0000
           SW IRRIGATION =           0.0000             SW IRRIGATION =           0.0000
        SYSTEM LOSSES GW =           0.0000          SYSTEM LOSSES GW =           0.0000
        SYSTEM LOSSES SW =           0.0000          SYSTEM LOSSES SW =           0.0000

               TOTAL OUT =           0.0000                 TOTAL OUT =           0.0000

                IN - OUT =           0.0000                  IN - OUT =           0.0000

     PERCENT DISCREPANCY =           0.00         PERCENT DISCREPANCY =           0.00




 HEAD WILL BE SAVED ON UNIT   58 AT END OF TIME STEP    1, STRESS PERIOD    6
1
  VOLUMETRIC BUDGET FOR ENTIRE MODEL AT END OF TIME STEP    1, STRESS PERIOD   6
  ------------------------------------------------------------------------------

     CUMULATIVE VOLUMES      L**3       RATES FOR THIS TIME STEP      L**3/T
     ------------------                 ------------------------

           IN:                                      IN:
           ---                                      ---
             STORAGE     =      364796.0312               STORAGE     =        5969.7422
       CONSTANT HEAD     =          12.7113         CONSTANT HEAD     =           0.5452
      STREAM LEAKAGE     =      330730.2812        STREAM LEAKAGE     =        2540.9897
        UZF RECHARGE     =     2198907.0000          UZF RECHARGE     =       11880.1396
               GW ET     =           0.0000                 GW ET     =           0.0000
     SURFACE LEAKAGE     =           0.0000       SURFACE LEAKAGE     =           0.0000
           AG WELLS      =           0.0000             AG WELLS      =           0.0000

                TOTAL IN =     2894446.0000                  TOTAL IN =       20391.4180

          OUT:                                     OUT:
          ----                                     ----
             STORAGE     =      962647.6250               STORAGE     =        2527.2170
       CONSTANT HEAD     =        4475.9170         CONSTANT HEAD     =          35.5299
      STREAM LEAKAGE     =     1584285.1250        STREAM LEAKAGE     =       13222.2588
        UZF RECHARGE     =           0.0000          UZF RECHARGE     =           0.0000
               GW ET     =      328682.5938                 GW ET     =        4451.5879
     SURFACE LEAKAGE     =       14368.7734       SURFACE LEAKAGE     =         160.4694
           AG WELLS      =           0.0000             AG WELLS      =           0.0000

               TOTAL OUT =     2894460.0000                 TOTAL OUT =       20397.0625

                IN - OUT =         -14.0000                  IN - OUT =          -5.6445

     PERCENT DISCREPANCY =          -0.00         PERCENT DISCREPANCY =          -0.03






         TIME SUMMARY AT END OF TIME STEP    1 IN STRESS PERIOD    6
                    SECONDS     MINUTES      HOURS       DAYS        YEARS
                    -----------------------------------------------------------
   TIME STEP LENGTH  86400.      1440.0      24.000      1.0000     2.73785E-03
 STRESS PERIOD TIME  86400.      1440.0      24.000      1.0000     2.73785E-03
         TOTAL TIME 1.08000E+07 1.80000E+05  3000.0      125.00     0.34223    
1
                                                   Max.-Head-Change                         Max.-Flux-Residual
  Residual-Control   Outer-Iter.   Inner-Iter.     Column Row Layer    Maximum-Head-Change  Column Row Layer    Maximum-Flux-Residual          L2-NORM 
          0                 1           6            68   48     1      -0.1172339793E+01       4   47    1        -0.1612739941E+02      0.1917459421E+03
          0                 2           4            42   28     1       0.4461782068E+00      42   28    1         0.3465671043E+03      0.6775875605E+03
          0                 3           3            42   28     1       0.1780621441E-01      64   38    1        -0.1743300610E+02      0.4047453286E+02
          0                 4           3            63   38     1      -0.1348323287E-01      63   38    1        -0.1905185202E+02      0.2772004537E+02
          0                 5           2            64   38     1      -0.5953828617E-02      64   38    1        -0.8434385363E+01      0.1085814922E+02
          0                 6           2            64   38     1      -0.1701030226E-02      64   38    1        -0.2417630798E+01      0.3098560023E+01
          0                 7           1            64   38     1      -0.3726976354E-03      64   38    1        -0.5307581514E+00      0.9083065680E+00

    ------------------------------------------------
       NWT REQUIRED            7 OUTER ITERATIONS 
       AND A TOTAL OF         21 INNER ITERATIONS.
    ------------------------------------------------

 NO OUTPUT CONTROL FOR STRESS PERIOD    6   TIME STEP    2
 ***WARNING***NUZTOP IS 3 AND ALL LAYERS  IN ROW           39  AND COLUMN           76  ARE INACTIVE.
 UNSATURATED FLOW WILL NOT BE ADDED TO ANY LAYER-- SOME WATER MAY FLOW PAST LOWEST LAYER
 ***WARNING***NUZTOP IS 3 AND ALL LAYERS  IN ROW           40  AND COLUMN           76  ARE INACTIVE.
 UNSATURATED FLOW WILL NOT BE ADDED TO ANY LAYER-- SOME WATER MAY FLOW PAST LOWEST LAYER
                                                   Max.-Head-Change                         Max.-Flux-Residual
  Residual-Control   Outer-Iter.   Inner-Iter.     Column Row Layer    Maximum-Head-Change  Column Row Layer    Maximum-Flux-Residual          L2-NORM 
          0                 1           6            62   31     1       0.7361017730E+00       4   47    1        -0.1611146436E+02      0.1807405116E+03
          0                 2           4            40   29     1       0.3637209296E+00      66   24    1         0.2005995757E+02      0.5498210838E+02
          0                 3           3            64   38     1       0.1164698364E-01      64   38    1         0.1641693666E+02      0.2908293726E+02
          0                 4           3            63   38     1       0.1291929478E-01      63   38    1         0.1825239368E+02      0.2659362694E+02
          0                 5           2            64   38     1       0.5518574183E-02      64   38    1         0.7816824866E+01      0.1004747875E+02
          0                 6           2            64   38     1       0.1532987504E-02      64   38    1         0.2177570844E+01      0.2842013847E+01
          0                 7           1            64   38     1       0.3296282146E-03      64   38    1         0.4689793293E+00      0.8599352256E+00

    ------------------------------------------------
       NWT REQUIRED            7 OUTER ITERATIONS 
       AND A TOTAL OF         21 INNER ITERATIONS.
    ------------------------------------------------

 NO OUTPUT CONTROL FOR STRESS PERIOD    6   TIME STEP    3
 ***WARNING***NUZTOP IS 3 AND ALL LAYERS  IN ROW           39  AND COLUMN           76  ARE INACTIVE.
 UNSATURATED FLOW WILL NOT BE ADDED TO ANY LAYER-- SOME WATER MAY FLOW PAST LOWEST LAYER
 ***WARNING***NUZTOP IS 3 AND ALL LAYERS  IN ROW           40  AND COLUMN           76  ARE INACTIVE.
 UNSATURATED FLOW WILL NOT BE ADDED TO ANY LAYER-- SOME WATER MAY FLOW PAST LOWEST LAYER
                                                   Max.-Head-Change                         Max.-Flux-Residual
  Residual-Control   Outer-Iter.   Inner-Iter.     Column Row Layer    Maximum-Head-Change  Column Row Layer    Maximum-Flux-Residual          L2-NORM 
          0                 1           5             3   57     1      -0.3640932896E+00       4   47    1        -0.1609529049E+02      0.1743838313E+03
          0                 2           3            24   33     1      -0.2396025015E-01      63   38    1        -0.6921663903E+01      0.4243462751E+02
          0                 3           2            63   38     1      -0.4711131656E-02      63   38    1        -0.6655178077E+01      0.1797132855E+02
          0                 4           2            63   38     1      -0.6057589591E-02      63   38    1        -0.8562475862E+01      0.1344416870E+02
          0                 5           2            64   38     1      -0.2751646128E-02      64   38    1        -0.3895148139E+01      0.5620877240E+01
          0                 6           1            64   38     1      -0.8117539530E-03      64   38    1        -0.1152882288E+01      0.1889915087E+01

    ------------------------------------------------
       NWT REQUIRED            6 OUTER ITERATIONS 
       AND A TOTAL OF         15 INNER ITERATIONS.
    ------------------------------------------------

 NO OUTPUT CONTROL FOR STRESS PERIOD    6   TIME STEP    4
 ***WARNING***NUZTOP IS 3 AND ALL LAYERS  IN ROW           39  AND COLUMN           76  ARE INACTIVE.
 UNSATURATED FLOW WILL NOT BE ADDED TO ANY LAYER-- SOME WATER MAY FLOW PAST LOWEST LAYER
 ***WARNING***NUZTOP IS 3 AND ALL LAYERS  IN ROW           40  AND COLUMN           76  ARE INACTIVE.
 UNSATURATED FLOW WILL NOT BE ADDED TO ANY LAYER-- SOME WATER MAY FLOW PAST LOWEST LAYER
                                                   Max.-Head-Change                         Max.-Flux-Residual
  Residual-Control   Outer-Iter.   Inner-Iter.     Column Row Layer    Maximum-Head-Change  Column Row Layer    Maximum-Flux-Residual          L2-NORM 
          0                 1           6             3   57     1       0.5809664263E+00       4   47    1        -0.1607906882E+02      0.1733411947E+03
          0                 2           3            62   30     1       0.6193957210E-01      66   24    1         0.1040274228E+02      0.4492690820E+02
          0                 3           2            64   38     1       0.5859622919E-02      63   38    1         0.8259008999E+01      0.1960970240E+02
          0                 4           2            63   38     1       0.7726507988E-02      63   38    1         0.1092189611E+02      0.1645869225E+02
          0                 5           2            64   38     1       0.3301220665E-02      64   38    1         0.4675623449E+01      0.6431315507E+01
          0                 6           1            64   38     1       0.9259481474E-03      64   38    1         0.1315467726E+01      0.2030413336E+01

    ------------------------------------------------
       NWT REQUIRED            6 OUTER ITERATIONS 
       AND A TOTAL OF         16 INNER ITERATIONS.
    ------------------------------------------------

 NO OUTPUT CONTROL FOR STRESS PERIOD    6   TIME STEP    5
 ***WARNING***NUZTOP IS 3 AND ALL LAYERS  IN ROW           39  AND COLUMN           76  ARE INACTIVE.
 UNSATURATED FLOW WILL NOT BE ADDED TO ANY LAYER-- SOME WATER MAY FLOW PAST LOWEST LAYER
 ***WARNING***NUZTOP IS 3 AND ALL LAYERS  IN ROW           40  AND COLUMN           76  ARE INACTIVE.
 UNSATURATED FLOW WILL NOT BE ADDED TO ANY LAYER-- SOME WATER MAY FLOW PAST LOWEST LAYER
                                                   Max.-Head-Change                         Max.-Flux-Residual
  Residual-Control   Outer-Iter.   Inner-Iter.     Column Row Layer    Maximum-Head-Change  Column Row Layer    Maximum-Flux-Residual          L2-NORM 
          0                 1           5            66   47     1       0.2010135948E+00       4   47    1        -0.1606261802E+02      0.1732390921E+03
          0                 2           3            47   24     1       0.1567148299E+00       8   39    1        -0.5202772661E+01      0.4151640604E+02
          0                 3           2             4   48     1      -0.3151853797E-02       4   48    1        -0.2057125008E+01      0.1502258846E+02
          0                 4           2             4   48     1      -0.1619784370E-02       4   48    1        -0.1057074283E+01      0.6275882221E+01
          0                 5           1             4   48     1      -0.8325412027E-03       4   48    1        -0.5432458783E+00      0.2888188182E+01

    ------------------------------------------------
       NWT REQUIRED            5 OUTER ITERATIONS 
       AND A TOTAL OF         13 INNER ITERATIONS.
    ------------------------------------------------

 NO OUTPUT CONTROL FOR STRESS PERIOD    6   TIME STEP    6
 ***WARNING***NUZTOP IS 3 AND ALL LAYERS  IN ROW           39  AND COLUMN           76  ARE INACTIVE.
 UNSATURATED FLOW WILL NOT BE ADDED TO ANY LAYER-- SOME WATER MAY FLOW PAST LOWEST LAYER
 ***WARNING***NUZTOP IS 3 AND ALL LAYERS  IN ROW           40  AND COLUMN           76  ARE INACTIVE.
 UNSATURATED FLOW WILL NOT BE ADDED TO ANY LAYER-- SOME WATER MAY FLOW PAST LOWEST LAYER
                                                   Max.-Head-Change                         Max.-Flux-Residual
  Residual-Control   Outer-Iter.   Inner-Iter.     Column Row Layer    Maximum-Head-Change  Column Row Layer    Maximum-Flux-Residual          L2-NORM 
          0                 1           6            68   48     1      -0.3969554987E+00      46   42    1         0.1606883584E+02      0.1769950136E+03
          0                 2           3            24   33     1      -0.2323749134E-01      66   24    1        -0.9263877566E+01      0.4407820523E+02
          0                 3           2            64   38     1      -0.5594575626E-02      64   38    1        -0.7885437523E+01      0.1916971022E+02
          0                 4           2            63   38     1      -0.6465990460E-02      63   38    1        -0.9137913784E+01      0.1431969990E+02
          0                 5           2            64   38     1      -0.2895843435E-02      64   38    1        -0.4101592057E+01      0.5850832945E+01
          0                 6           1            64   38     1      -0.8395954569E-03      64   38    1        -0.1193290868E+01      0.1938203493E+01

    ------------------------------------------------
       NWT REQUIRED            6 OUTER ITERATIONS 
       AND A TOTAL OF         16 INNER ITERATIONS.
    ------------------------------------------------

 NO OUTPUT CONTROL FOR STRESS PERIOD    6   TIME STEP    7
 ***WARNING***NUZTOP IS 3 AND ALL LAYERS  IN ROW           39  AND COLUMN           76  ARE INACTIVE.
 UNSATURATED FLOW WILL NOT BE ADDED TO ANY LAYER-- SOME WATER MAY FLOW PAST LOWEST LAYER
 ***WARNING***NUZTOP IS 3 AND ALL LAYERS  IN ROW           40  AND COLUMN           76  ARE INACTIVE.
 UNSATURATED FLOW WILL NOT BE ADDED TO ANY LAYER-- SOME WATER MAY FLOW PAST LOWEST LAYER
                                                   Max.-Head-Change                         Max.-Flux-Residual
  Residual-Control   Outer-Iter.   Inner-Iter.     Column Row Layer    Maximum-Head-Change  Column Row Layer    Maximum-Flux-Residual          L2-NORM 
          0                 1           6            68   48     1      -0.2525305581E+00       4   47    1        -0.1602941938E+02      0.1731847959E+03
          0                 2           3            47   24     1       0.3193656511E-01      47   24    1         0.2497031971E+02      0.5384295222E+02
          0                 3           2             4   48     1      -0.3134712949E-02      64   38    1        -0.3139022903E+01      0.1571246345E+02
          0                 4           2            63   38     1      -0.2523299172E-02      63   38    1        -0.3565828680E+01      0.8011088221E+01
          0                 5           2            64   38     1      -0.1185219592E-02      64   38    1        -0.1678072415E+01      0.3535305409E+01
          0                 6           1             6   49     1      -0.4258830518E-03      64   38    1        -0.5108395060E+00      0.1488026049E+01

    ------------------------------------------------
       NWT REQUIRED            6 OUTER ITERATIONS 
       AND A TOTAL OF         16 INNER ITERATIONS.
    ------------------------------------------------

 NO OUTPUT CONTROL FOR STRESS PERIOD    6   TIME STEP    8
 ***WARNING***NUZTOP IS 3 AND ALL LAYERS  IN ROW           39  AND COLUMN           76  ARE INACTIVE.
 UNSATURATED FLOW WILL NOT BE ADDED TO ANY LAYER-- SOME WATER MAY FLOW PAST LOWEST LAYER
 ***WARNING***NUZTOP IS 3 AND ALL LAYERS  IN ROW           40  AND COLUMN           76  ARE INACTIVE.
 UNSATURATED FLOW WILL NOT BE ADDED TO ANY LAYER-- SOME WATER MAY FLOW PAST LOWEST LAYER
                                                   Max.-Head-Change                         Max.-Flux-Residual
  Residual-Control   Outer-Iter.   Inner-Iter.     Column Row Layer    Maximum-Head-Change  Column Row Layer    Maximum-Flux-Residual          L2-NORM 
          0                 1           5            68   49     2      -0.1154935994E+00       4   47    1        -0.1601308314E+02      0.1723983489E+03
          0                 2           3            24   33     1      -0.2464340789E-01       7   47    1        -0.4095573521E+01      0.4036211821E+02
          0                 3           2             4   48     1      -0.3126444934E-02       4   48    1        -0.2040505170E+01      0.1497584023E+02
          0                 4           2             4   48     1      -0.1606761941E-02      63   38    1        -0.1228110109E+01      0.6461064786E+01
          0                 5           1             4   48     1      -0.8258648113E-03      64   38    1        -0.6685754814E+00      0.2962292791E+01

    ------------------------------------------------
       NWT REQUIRED            5 OUTER ITERATIONS 
       AND A TOTAL OF         13 INNER ITERATIONS.
    ------------------------------------------------

 NO OUTPUT CONTROL FOR STRESS PERIOD    6   TIME STEP    9
 ***WARNING***NUZTOP IS 3 AND ALL LAYERS  IN ROW           39  AND COLUMN           76  ARE INACTIVE.
 UNSATURATED FLOW WILL NOT BE ADDED TO ANY LAYER-- SOME WATER MAY FLOW PAST LOWEST LAYER
 ***WARNING***NUZTOP IS 3 AND ALL LAYERS  IN ROW           40  AND COLUMN           76  ARE INACTIVE.
 UNSATURATED FLOW WILL NOT BE ADDED TO ANY LAYER-- SOME WATER MAY FLOW PAST LOWEST LAYER
                                                   Max.-Head-Change                         Max.-Flux-Residual
  Residual-Control   Outer-Iter.   Inner-Iter.     Column Row Layer    Maximum-Head-Change  Column Row Layer    Maximum-Flux-Residual          L2-NORM 
          0                 1           4            25   33     2      -0.7256672078E-01       4   47    1        -0.1599614572E+02      0.1718131992E+03
          0                 2           3            24   33     1      -0.2335137027E-01       7   47    1        -0.4084090239E+01      0.4014511626E+02
          0                 3           2             4   48     1      -0.3118815149E-02       4   48    1        -0.2035519999E+01      0.1486739775E+02
          0                 4           2             4   48     1      -0.1602850205E-02       4   48    1        -0.1045999919E+01      0.6204578449E+01
          0                 5           1             4   48     1      -0.8238556088E-03       4   48    1        -0.5375684215E+00      0.2822386629E+01

    ------------------------------------------------
       NWT REQUIRED            5 OUTER ITERATIONS 
       AND A TOTAL OF         12 INNER ITERATIONS.
    ------------------------------------------------

 NO OUTPUT CONTROL FOR STRESS PERIOD    6   TIME STEP   10
 ***WARNING***NUZTOP IS 3 AND ALL LAYERS  IN ROW           39  AND COLUMN           76  ARE INACTIVE.
 UNSATURATED FLOW WILL NOT BE ADDED TO ANY LAYER-- SOME WATER MAY FLOW PAST LOWEST LAYER
 ***WARNING***NUZTOP IS 3 AND ALL LAYERS  IN ROW           40  AND COLUMN           76  ARE INACTIVE.
 UNSATURATED FLOW WILL NOT BE ADDED TO ANY LAYER-- SOME WATER MAY FLOW PAST LOWEST LAYER
                                                   Max.-Head-Change                         Max.-Flux-Residual
  Residual-Control   Outer-Iter.   Inner-Iter.     Column Row Layer    Maximum-Head-Change  Column Row Layer    Maximum-Flux-Residual          L2-NORM 
          0                 1           6            68   48     1      -0.5429119376E+00       4   47    1        -0.1597925869E+02      0.1798299950E+03
          0                 2           3            39   30     1       0.2198803187E+00      39   30    1         0.1707418089E+03      0.2565655848E+03
          0                 3           2            39   30     1       0.8786664958E-02      64   38    1        -0.9623475133E+01      0.2309533419E+02
          0                 4           2            63   38     1      -0.7368554155E-02      63   38    1        -0.1041107079E+02      0.1601759562E+02
          0                 5           2            64   38     1      -0.3314818181E-02      64   38    1        -0.4695365146E+01      0.6500427696E+01
          0                 6           1            64   38     1      -0.9639157943E-03      64   38    1        -0.1370095181E+01      0.2087341224E+01

    ------------------------------------------------
       NWT REQUIRED            6 OUTER ITERATIONS 
       AND A TOTAL OF         16 INNER ITERATIONS.
    ------------------------------------------------

 NO OUTPUT CONTROL FOR STRESS PERIOD    6   TIME STEP   11
 ***WARNING***NUZTOP IS 3 AND ALL LAYERS  IN ROW           39  AND COLUMN           76  ARE INACTIVE.
 UNSATURATED FLOW WILL NOT BE ADDED TO ANY LAYER-- SOME WATER MAY FLOW PAST LOWEST LAYER
 ***WARNING***NUZTOP IS 3 AND ALL LAYERS  IN ROW           40  AND COLUMN           76  ARE INACTIVE.
 UNSATURATED FLOW WILL NOT BE ADDED TO ANY LAYER-- SOME WATER MAY FLOW PAST LOWEST LAYER
                                                   Max.-Head-Change                         Max.-Flux-Residual
  Residual-Control   Outer-Iter.   Inner-Iter.     Column Row Layer    Maximum-Head-Change  Column Row Layer    Maximum-Flux-Residual          L2-NORM 
          0                 1           6            68   48     1       0.4393575809E+00       4   47    1        -0.1596283824E+02      0.1758914919E+03
          0                 2           3            34   59     1       0.4893120808E-01      63   38    1         0.1147253948E+02      0.4496987658E+02
          0                 3           2            64   38     1       0.6439737382E-02      64   38    1         0.9079526441E+01      0.2022316540E+02
          0                 4           2            63   38     1       0.6621037954E-02      63   38    1         0.9352084737E+01      0.1472488310E+02
          0                 5           2            64   38     1       0.2764829211E-02      64   38    1         0.3917711945E+01      0.5578570534E+01
          0                 6           1            64   38     1       0.7490024493E-03      64   38    1         0.1064437067E+01      0.1834757099E+01

    ------------------------------------------------
       NWT REQUIRED            6 OUTER ITERATIONS 
       AND A TOTAL OF         16 INNER ITERATIONS.
    ------------------------------------------------

 NO OUTPUT CONTROL FOR STRESS PERIOD    6   TIME STEP   12
 ***WARNING***NUZTOP IS 3 AND ALL LAYERS  IN ROW           39  AND COLUMN           76  ARE INACTIVE.
 UNSATURATED FLOW WILL NOT BE ADDED TO ANY LAYER-- SOME WATER MAY FLOW PAST LOWEST LAYER
 ***WARNING***NUZTOP IS 3 AND ALL LAYERS  IN ROW           40  AND COLUMN           76  ARE INACTIVE.
 UNSATURATED FLOW WILL NOT BE ADDED TO ANY LAYER-- SOME WATER MAY FLOW PAST LOWEST LAYER
                                                   Max.-Head-Change                         Max.-Flux-Residual
  Residual-Control   Outer-Iter.   Inner-Iter.     Column Row Layer    Maximum-Head-Change  Column Row Layer    Maximum-Flux-Residual          L2-NORM 
          0                 1           6            68   48     1      -0.1115185971E+01       4   47    1        -0.1594673241E+02      0.1988973110E+03
          0                 2           4            40   29     1       0.4307425423E+00      40   29    1         0.3345902832E+03      0.6029435056E+03
          0                 3           3            62   32     1       0.4209178282E-01      64   38    1        -0.2067358706E+02      0.4207968699E+02
          0                 4           3            63   38     1      -0.1588608458E-01      63   38    1        -0.2244625432E+02      0.3246299567E+02
          0                 5           2            64   38     1      -0.6940149834E-02      64   38    1        -0.9833442346E+01      0.1251668321E+02
          0                 6           2            64   38     1      -0.1973847506E-02      64   38    1        -0.2805689958E+01      0.3526637777E+01
          0                 7           1            64   38     1      -0.4346283945E-03      64   38    1        -0.6189983018E+00      0.1004014005E+01

    ------------------------------------------------
       NWT REQUIRED            7 OUTER ITERATIONS 
       AND A TOTAL OF         21 INNER ITERATIONS.
    ------------------------------------------------

 NO OUTPUT CONTROL FOR STRESS PERIOD    6   TIME STEP   13
 ***WARNING***NUZTOP IS 3 AND ALL LAYERS  IN ROW           39  AND COLUMN           76  ARE INACTIVE.
 UNSATURATED FLOW WILL NOT BE ADDED TO ANY LAYER-- SOME WATER MAY FLOW PAST LOWEST LAYER
 ***WARNING***NUZTOP IS 3 AND ALL LAYERS  IN ROW           40  AND COLUMN           76  ARE INACTIVE.
 UNSATURATED FLOW WILL NOT BE ADDED TO ANY LAYER-- SOME WATER MAY FLOW PAST LOWEST LAYER
                                                   Max.-Head-Change                         Max.-Flux-Residual
  Residual-Control   Outer-Iter.   Inner-Iter.     Column Row Layer    Maximum-Head-Change  Column Row Layer    Maximum-Flux-Residual          L2-NORM 
          0                 1           6            68   48     1      -0.8140798663E+00      39   59    1        -0.1806322159E+02      0.2137387424E+03
          0                 2           4            62   32     1       0.3271035930E+00      62   32    1         0.2505025498E+03      0.5061467909E+03
          0                 3           2            62   32     1       0.1304183094E-01      64   38    1        -0.1093208346E+02      0.3050678932E+02
          0                 4           2            63   38     1      -0.9276926387E-02      63   38    1        -0.1311144566E+02      0.1955577520E+02
          0                 5           2            64   38     1      -0.4145457531E-02      64   38    1        -0.5872392888E+01      0.7898625113E+01
          0                 6           2            64   38     1      -0.1207987684E-02      64   38    1        -0.1716892331E+01      0.2460033572E+01
          0                 7           1            64   38     1      -0.2700102627E-03      64   38    1        -0.3845651891E+00      0.8578984961E+00

    ------------------------------------------------
       NWT REQUIRED            7 OUTER ITERATIONS 
       AND A TOTAL OF         19 INNER ITERATIONS.
    ------------------------------------------------

 NO OUTPUT CONTROL FOR STRESS PERIOD    6   TIME STEP   14
 ***WARNING***NUZTOP IS 3 AND ALL LAYERS  IN ROW           39  AND COLUMN           76  ARE INACTIVE.
 UNSATURATED FLOW WILL NOT BE ADDED TO ANY LAYER-- SOME WATER MAY FLOW PAST LOWEST LAYER
 ***WARNING***NUZTOP IS 3 AND ALL LAYERS  IN ROW           40  AND COLUMN           76  ARE INACTIVE.
 UNSATURATED FLOW WILL NOT BE ADDED TO ANY LAYER-- SOME WATER MAY FLOW PAST LOWEST LAYER
                                                   Max.-Head-Change                         Max.-Flux-Residual
  Residual-Control   Outer-Iter.   Inner-Iter.     Column Row Layer    Maximum-Head-Change  Column Row Layer    Maximum-Flux-Residual          L2-NORM 
          0                 1           5            67   49     2      -0.3047712085E+00      39   59    1        -0.2484211288E+02      0.2185639265E+03
          0                 2           3            52   56     1      -0.3978439972E-01       7   47    1        -0.4023272248E+01      0.4067046075E+02
          0                 3           2            68   66     1       0.6415299020E-02      68   66    1         0.4627287528E+01      0.1610063500E+02
          0                 4           2             4   48     1      -0.1593126240E-02       4   48    1        -0.1039107363E+01      0.6573299935E+01
          0                 5           1             4   48     1      -0.8192256746E-03       4   48    1        -0.5343067548E+00      0.3052852822E+01

    ------------------------------------------------
       NWT REQUIRED            5 OUTER ITERATIONS 
       AND A TOTAL OF         13 INNER ITERATIONS.
    ------------------------------------------------

 NO OUTPUT CONTROL FOR STRESS PERIOD    6   TIME STEP   15
 ***WARNING***NUZTOP IS 3 AND ALL LAYERS  IN ROW           39  AND COLUMN           76  ARE INACTIVE.
 UNSATURATED FLOW WILL NOT BE ADDED TO ANY LAYER-- SOME WATER MAY FLOW PAST LOWEST LAYER
 ***WARNING***NUZTOP IS 3 AND ALL LAYERS  IN ROW           40  AND COLUMN           76  ARE INACTIVE.
 UNSATURATED FLOW WILL NOT BE ADDED TO ANY LAYER-- SOME WATER MAY FLOW PAST LOWEST LAYER
                                                   Max.-Head-Change                         Max.-Flux-Residual
  Residual-Control   Outer-Iter.   Inner-Iter.     Column Row Layer    Maximum-Head-Change  Column Row Layer    Maximum-Flux-Residual          L2-NORM 
          0                 1           5            68   48     2      -0.1750179662E+00      39   59    1        -0.2394704161E+02      0.2129497969E+03
          0                 2           3            52   56     1      -0.3645269831E-01       7   47    1        -0.4012071247E+01      0.4061114507E+02
          0                 3           2             7   47     1      -0.2978007924E-02      63   38    1         0.2153299578E+01      0.1565073054E+02
          0                 4           2            63   38     1       0.1923792025E-02      63   38    1         0.2719936457E+01      0.7551812348E+01
          0                 5           1             4   49     1      -0.8024474978E-03      64   38    1         0.1016135923E+01      0.3236254934E+01

    ------------------------------------------------
       NWT REQUIRED            5 OUTER ITERATIONS 
       AND A TOTAL OF         13 INNER ITERATIONS.
    ------------------------------------------------

 NO OUTPUT CONTROL FOR STRESS PERIOD    6   TIME STEP   16
 ***WARNING***NUZTOP IS 3 AND ALL LAYERS  IN ROW           39  AND COLUMN           76  ARE INACTIVE.
 UNSATURATED FLOW WILL NOT BE ADDED TO ANY LAYER-- SOME WATER MAY FLOW PAST LOWEST LAYER
 ***WARNING***NUZTOP IS 3 AND ALL LAYERS  IN ROW           40  AND COLUMN           76  ARE INACTIVE.
 UNSATURATED FLOW WILL NOT BE ADDED TO ANY LAYER-- SOME WATER MAY FLOW PAST LOWEST LAYER
                                                   Max.-Head-Change                         Max.-Flux-Residual
  Residual-Control   Outer-Iter.   Inner-Iter.     Column Row Layer    Maximum-Head-Change  Column Row Layer    Maximum-Flux-Residual          L2-NORM 
          0                 1           6            68   48     1       0.1322913427E+01      39   59    1        -0.1838989258E+02      0.2107475330E+03
          0                 2           5            69   48     1       0.9456918729E+00      63   38    1         0.3681514476E+02      0.7854812538E+02
          0                 3           3            64   38     1       0.2100683312E-01      64   38    1         0.2962048044E+02      0.4720952828E+02
          0                 4           3            63   38     1       0.2269367405E-01      63   38    1         0.3206415733E+02      0.4597801702E+02
          0                 5           2            64   38     1       0.9827298263E-02      64   38    1         0.1392485869E+02      0.1745864551E+02
          0                 6           2            64   38     1       0.2750988018E-02      64   38    1         0.3910342141E+01      0.4705214734E+01
          0                 7           1            64   38     1       0.5928039859E-03      64   38    1         0.8442339513E+00      0.1183759460E+01

    ------------------------------------------------
       NWT REQUIRED            7 OUTER ITERATIONS 
       AND A TOTAL OF         22 INNER ITERATIONS.
    ------------------------------------------------

 NO OUTPUT CONTROL FOR STRESS PERIOD    6   TIME STEP   17
 ***WARNING***NUZTOP IS 3 AND ALL LAYERS  IN ROW           39  AND COLUMN           76  ARE INACTIVE.
 UNSATURATED FLOW WILL NOT BE ADDED TO ANY LAYER-- SOME WATER MAY FLOW PAST LOWEST LAYER
 ***WARNING***NUZTOP IS 3 AND ALL LAYERS  IN ROW           40  AND COLUMN           76  ARE INACTIVE.
 UNSATURATED FLOW WILL NOT BE ADDED TO ANY LAYER-- SOME WATER MAY FLOW PAST LOWEST LAYER
                                                   Max.-Head-Change                         Max.-Flux-Residual
  Residual-Control   Outer-Iter.   Inner-Iter.     Column Row Layer    Maximum-Head-Change  Column Row Layer    Maximum-Flux-Residual          L2-NORM 
          0                 1           6            26   33     1       0.1015632346E+01       8   39    1        -0.1619496520E+02      0.1818231123E+03
          0                 2           5            62   32     1       0.1087082821E+01      69   50    1         0.1517531017E+02      0.5255941303E+02
          0                 3           2            62   32     1      -0.7754350865E-02      64   38    1         0.1050407298E+02      0.2212408017E+02
          0                 4           2            63   38     1       0.8675040021E-02      63   38    1         0.1226041276E+02      0.1844648412E+02
          0                 5           2            64   38     1       0.3641444770E-02      64   38    1         0.5161017762E+01      0.6993355755E+01
          0                 6           1            64   38     1       0.9948832083E-03      64   38    1         0.1414756990E+01      0.2149130624E+01

    ------------------------------------------------
       NWT REQUIRED            6 OUTER ITERATIONS 
       AND A TOTAL OF         18 INNER ITERATIONS.
    ------------------------------------------------

 NO OUTPUT CONTROL FOR STRESS PERIOD    6   TIME STEP   18
 ***WARNING***NUZTOP IS 3 AND ALL LAYERS  IN ROW           39  AND COLUMN           76  ARE INACTIVE.
 UNSATURATED FLOW WILL NOT BE ADDED TO ANY LAYER-- SOME WATER MAY FLOW PAST LOWEST LAYER
 ***WARNING***NUZTOP IS 3 AND ALL LAYERS  IN ROW           40  AND COLUMN           76  ARE INACTIVE.
 UNSATURATED FLOW WILL NOT BE ADDED TO ANY LAYER-- SOME WATER MAY FLOW PAST LOWEST LAYER
                                                   Max.-Head-Change                         Max.-Flux-Residual
  Residual-Control   Outer-Iter.   Inner-Iter.     Column Row Layer    Maximum-Head-Change  Column Row Layer    Maximum-Flux-Residual          L2-NORM 
          0                 1           6            68   48     1      -0.1924537118E+01      46   42    1         0.2033402307E+02      0.2292437015E+03
          0                 2           3            62   30     1       0.1952932525E+00      11   40    1         0.8196409916E+02      0.1514594765E+03
          0                 3           3            64   38     1      -0.2690463131E-01      64   38    1        -0.3792208398E+02      0.5921208542E+02
          0                 4           3            63   38     1      -0.2942280410E-01      63   38    1        -0.4157426093E+02      0.5916699228E+02
          0                 5           3            64   38     1      -0.1288704025E-01      64   38    1        -0.1825891008E+02      0.2277499046E+02
          0                 6           2            64   38     1      -0.3662747257E-02      64   38    1        -0.5206300601E+01      0.6133717905E+01
          0                 7           1            64   38     1      -0.7993591180E-03      64   38    1        -0.1138492939E+01      0.1463241377E+01

    ------------------------------------------------
       NWT REQUIRED            7 OUTER ITERATIONS 
       AND A TOTAL OF         21 INNER ITERATIONS.
    ------------------------------------------------

 NO OUTPUT CONTROL FOR STRESS PERIOD    6   TIME STEP   19
 ***WARNING***NUZTOP IS 3 AND ALL LAYERS  IN ROW           39  AND COLUMN           76  ARE INACTIVE.
 UNSATURATED FLOW WILL NOT BE ADDED TO ANY LAYER-- SOME WATER MAY FLOW PAST LOWEST LAYER
 ***WARNING***NUZTOP IS 3 AND ALL LAYERS  IN ROW           40  AND COLUMN           76  ARE INACTIVE.
 UNSATURATED FLOW WILL NOT BE ADDED TO ANY LAYER-- SOME WATER MAY FLOW PAST LOWEST LAYER
                                                   Max.-Head-Change                         Max.-Flux-Residual
  Residual-Control   Outer-Iter.   Inner-Iter.     Column Row Layer    Maximum-Head-Change  Column Row Layer    Maximum-Flux-Residual          L2-NORM 
          0                 1           4            67   49     2      -0.2182113944E+00       8   39    1        -0.1614179519E+02      0.1920052580E+03
          0                 2           3            52   56     1      -0.3287686597E-01      63   38    1         0.8110283870E+01      0.4298952246E+02
          0                 3           2             3   58     1       0.1669197024E-01       3   58    1         0.1149187751E+02      0.2154020028E+02
          0                 4           2            64   38     1       0.3871983653E-02      64   38    1         0.5459057243E+01      0.1015614442E+02
          0                 5           2            64   38     1       0.1534208516E-02      64   38    1         0.2175403948E+01      0.3975532263E+01
          0                 6           1             6   49     1      -0.4172300341E-03      64   38    1         0.5661919344E+00      0.1578015813E+01

    ------------------------------------------------
       NWT REQUIRED            6 OUTER ITERATIONS 
       AND A TOTAL OF         14 INNER ITERATIONS.
    ------------------------------------------------

 NO OUTPUT CONTROL FOR STRESS PERIOD    6   TIME STEP   20
 ***WARNING***NUZTOP IS 3 AND ALL LAYERS  IN ROW           39  AND COLUMN           76  ARE INACTIVE.
 UNSATURATED FLOW WILL NOT BE ADDED TO ANY LAYER-- SOME WATER MAY FLOW PAST LOWEST LAYER
 ***WARNING***NUZTOP IS 3 AND ALL LAYERS  IN ROW           40  AND COLUMN           76  ARE INACTIVE.
 UNSATURATED FLOW WILL NOT BE ADDED TO ANY LAYER-- SOME WATER MAY FLOW PAST LOWEST LAYER
                                                   Max.-Head-Change                         Max.-Flux-Residual
  Residual-Control   Outer-Iter.   Inner-Iter.     Column Row Layer    Maximum-Head-Change  Column Row Layer    Maximum-Flux-Residual          L2-NORM 
          0                 1           6            68   48     1      -0.3402844629E+00       8   39    1        -0.1611526195E+02      0.1945197945E+03
          0                 2           3            58   35     1       0.4243158227E+00      62   32    1         0.5035139103E+02      0.8026453160E+02
          0                 3           2            26   33     1       0.1094766816E-01      26   33    1         0.7557982843E+01      0.1966044004E+02
          0                 4           2            63   38     1      -0.4506183651E-02      63   38    1        -0.6366463972E+01      0.1117605268E+02
          0                 5           2            64   38     1      -0.2088771073E-02      64   38    1        -0.2957995534E+01      0.4777568557E+01
          0                 6           1            64   38     1      -0.6277502994E-03      64   38    1        -0.8921110339E+00      0.1787798234E+01

    ------------------------------------------------
       NWT REQUIRED            6 OUTER ITERATIONS 
       AND A TOTAL OF         16 INNER ITERATIONS.
    ------------------------------------------------

 NO OUTPUT CONTROL FOR STRESS PERIOD    6   TIME STEP   21
 ***WARNING***NUZTOP IS 3 AND ALL LAYERS  IN ROW           39  AND COLUMN           76  ARE INACTIVE.
 UNSATURATED FLOW WILL NOT BE ADDED TO ANY LAYER-- SOME WATER MAY FLOW PAST LOWEST LAYER
 ***WARNING***NUZTOP IS 3 AND ALL LAYERS  IN ROW           40  AND COLUMN           76  ARE INACTIVE.
 UNSATURATED FLOW WILL NOT BE ADDED TO ANY LAYER-- SOME WATER MAY FLOW PAST LOWEST LAYER
                                                   Max.-Head-Change                         Max.-Flux-Residual
  Residual-Control   Outer-Iter.   Inner-Iter.     Column Row Layer    Maximum-Head-Change  Column Row Layer    Maximum-Flux-Residual          L2-NORM 
          0                 1           6            68   48     1       0.5781426333E+00       8   39    1        -0.1608912910E+02      0.1901401423E+03
          0                 2           4            26   33     1       0.3034611594E+00      63   38    1         0.1398494527E+02      0.4812786306E+02
          0                 3           2            64   38     1       0.8096494317E-02      64   38    1         0.1141503014E+02      0.2315298596E+02
          0                 4           2            63   38     1       0.8441482091E-02      63   38    1         0.1192603732E+02      0.1820286248E+02
          0                 5           2            64   38     1       0.3651662910E-02      64   38    1         0.5173019310E+01      0.7059762319E+01
          0                 6           2            64   38     1       0.1024392589E-02      64   38    1         0.1455312961E+01      0.2223563287E+01
          0                 7           1            64   38     1       0.2222532021E-03      64   38    1         0.3162904399E+00      0.8200608323E+00

    ------------------------------------------------
       NWT REQUIRED            7 OUTER ITERATIONS 
       AND A TOTAL OF         19 INNER ITERATIONS.
    ------------------------------------------------

 NO OUTPUT CONTROL FOR STRESS PERIOD    6   TIME STEP   22
 ***WARNING***NUZTOP IS 3 AND ALL LAYERS  IN ROW           39  AND COLUMN           76  ARE INACTIVE.
 UNSATURATED FLOW WILL NOT BE ADDED TO ANY LAYER-- SOME WATER MAY FLOW PAST LOWEST LAYER
 ***WARNING***NUZTOP IS 3 AND ALL LAYERS  IN ROW           40  AND COLUMN           76  ARE INACTIVE.
 UNSATURATED FLOW WILL NOT BE ADDED TO ANY LAYER-- SOME WATER MAY FLOW PAST LOWEST LAYER
                                                   Max.-Head-Change                         Max.-Flux-Residual
  Residual-Control   Outer-Iter.   Inner-Iter.     Column Row Layer    Maximum-Head-Change  Column Row Layer    Maximum-Flux-Residual          L2-NORM 
          0                 1           6            68   48     1       0.3735045760E+00       8   39    1        -0.1606292473E+02      0.1774710659E+03
          0                 2           4            23   52     1       0.2040487946E+00       4   48    1        -0.5723238847E+01      0.4233454947E+02
          0                 3           3            24   52     1       0.2108698144E-01      64   38    1         0.4087836889E+01      0.1667893469E+02
          0                 4           2            63   38     1       0.3376666363E-02      63   38    1         0.4772650239E+01      0.9397303817E+01
          0                 5           2            64   38     1       0.1358728578E-02      64   38    1         0.1926919787E+01      0.3819713877E+01
          0                 6           1             6   49     1      -0.4404647384E-03      64   38    1         0.5098851372E+00      0.1574657946E+01

    ------------------------------------------------
       NWT REQUIRED            6 OUTER ITERATIONS 
       AND A TOTAL OF         18 INNER ITERATIONS.
    ------------------------------------------------

 NO OUTPUT CONTROL FOR STRESS PERIOD    6   TIME STEP   23
 ***WARNING***NUZTOP IS 3 AND ALL LAYERS  IN ROW           39  AND COLUMN           76  ARE INACTIVE.
 UNSATURATED FLOW WILL NOT BE ADDED TO ANY LAYER-- SOME WATER MAY FLOW PAST LOWEST LAYER
 ***WARNING***NUZTOP IS 3 AND ALL LAYERS  IN ROW           40  AND COLUMN           76  ARE INACTIVE.
 UNSATURATED FLOW WILL NOT BE ADDED TO ANY LAYER-- SOME WATER MAY FLOW PAST LOWEST LAYER
                                                   Max.-Head-Change                         Max.-Flux-Residual
  Residual-Control   Outer-Iter.   Inner-Iter.     Column Row Layer    Maximum-Head-Change  Column Row Layer    Maximum-Flux-Residual          L2-NORM 
          0                 1           6            68   48     1       0.8716545037E+00       8   39    1        -0.1603711702E+02      0.1795690879E+03
          0                 2           3            62   31     1       0.1556175763E+00      63   38    1         0.1650749054E+02      0.5058271389E+02
          0                 3           2            64   38     1       0.9292390591E-02      64   38    1         0.1310366512E+02      0.2497983000E+02
          0                 4           2            63   38     1       0.1017680204E-01      63   38    1         0.1437971548E+02      0.2137915986E+02
          0                 5           2            64   38     1       0.4497266050E-02      64   38    1         0.6371141579E+01      0.8457748033E+01
          0                 6           2            64   38     1       0.1286986574E-02      64   38    1         0.1829032565E+01      0.2551619983E+01
          0                 7           1            64   38     1       0.2822307645E-03      64   38    1         0.4019032541E+00      0.8525078116E+00

    ------------------------------------------------
       NWT REQUIRED            7 OUTER ITERATIONS 
       AND A TOTAL OF         18 INNER ITERATIONS.
    ------------------------------------------------

 NO OUTPUT CONTROL FOR STRESS PERIOD    6   TIME STEP   24
 ***WARNING***NUZTOP IS 3 AND ALL LAYERS  IN ROW           39  AND COLUMN           76  ARE INACTIVE.
 UNSATURATED FLOW WILL NOT BE ADDED TO ANY LAYER-- SOME WATER MAY FLOW PAST LOWEST LAYER
 ***WARNING***NUZTOP IS 3 AND ALL LAYERS  IN ROW           40  AND COLUMN           76  ARE INACTIVE.
 UNSATURATED FLOW WILL NOT BE ADDED TO ANY LAYER-- SOME WATER MAY FLOW PAST LOWEST LAYER
                                                   Max.-Head-Change                         Max.-Flux-Residual
  Residual-Control   Outer-Iter.   Inner-Iter.     Column Row Layer    Maximum-Head-Change  Column Row Layer    Maximum-Flux-Residual          L2-NORM 
          0                 1           6            68   48     1      -0.6089461622E+00      46   42    1         0.1787162239E+02      0.1825051616E+03
          0                 2           3            45   43     1       0.5314143968E-01      63   38    1        -0.1629336304E+02      0.4976665273E+02
          0                 3           2            64   38     1      -0.9833776552E-02      64   38    1        -0.1385700227E+02      0.2595287259E+02
          0                 4           2            63   38     1      -0.1057730657E-01      63   38    1        -0.1494187099E+02      0.2218090707E+02
          0                 5           2            64   38     1      -0.4725681344E-02      64   38    1        -0.6691632333E+01      0.8849775514E+01
          0                 6           2            64   38     1      -0.1366171099E-02      64   38    1        -0.1940321135E+01      0.2665384908E+01
          0                 7           1            64   38     1      -0.3032590776E-03      64   38    1        -0.4314763093E+00      0.8743107323E+00

    ------------------------------------------------
       NWT REQUIRED            7 OUTER ITERATIONS 
       AND A TOTAL OF         18 INNER ITERATIONS.
    ------------------------------------------------

 NO OUTPUT CONTROL FOR STRESS PERIOD    6   TIME STEP   25
 ***WARNING***NUZTOP IS 3 AND ALL LAYERS  IN ROW           39  AND COLUMN           76  ARE INACTIVE.
 UNSATURATED FLOW WILL NOT BE ADDED TO ANY LAYER-- SOME WATER MAY FLOW PAST LOWEST LAYER
 ***WARNING***NUZTOP IS 3 AND ALL LAYERS  IN ROW           40  AND COLUMN           76  ARE INACTIVE.
 UNSATURATED FLOW WILL NOT BE ADDED TO ANY LAYER-- SOME WATER MAY FLOW PAST LOWEST LAYER
                                                   Max.-Head-Change                         Max.-Flux-Residual
  Residual-Control   Outer-Iter.   Inner-Iter.     Column Row Layer    Maximum-Head-Change  Column Row Layer    Maximum-Flux-Residual          L2-NORM 
          0                 1           6            68   48     1      -0.8568296870E+00       8   39    1        -0.1598558676E+02      0.1898917420E+03
          0                 2           3            62   31     1       0.2597805025E+00      62   31    1         0.1989657351E+03      0.2655889197E+03
          0                 3           2            62   31     1       0.1036542252E-01      64   38    1        -0.1326127290E+02      0.2749113055E+02
          0                 4           2            62   32     1       0.3610725462E-01      63   38    1        -0.1514747921E+02      0.2238974311E+02
          0                 5           2            64   38     1      -0.4716440603E-02      64   38    1        -0.6682308052E+01      0.8826242777E+01
          0                 6           2            64   38     1      -0.1347154690E-02      64   38    1        -0.1914952433E+01      0.2650005130E+01
          0                 7           1            64   38     1      -0.2961509708E-03      64   38    1        -0.4218351228E+00      0.8826166098E+00

    ------------------------------------------------
       NWT REQUIRED            7 OUTER ITERATIONS 
       AND A TOTAL OF         18 INNER ITERATIONS.
    ------------------------------------------------

 NO OUTPUT CONTROL FOR STRESS PERIOD    6   TIME STEP   26
 ***WARNING***NUZTOP IS 3 AND ALL LAYERS  IN ROW           39  AND COLUMN           76  ARE INACTIVE.
 UNSATURATED FLOW WILL NOT BE ADDED TO ANY LAYER-- SOME WATER MAY FLOW PAST LOWEST LAYER
 ***WARNING***NUZTOP IS 3 AND ALL LAYERS  IN ROW           40  AND COLUMN           76  ARE INACTIVE.
 UNSATURATED FLOW WILL NOT BE ADDED TO ANY LAYER-- SOME WATER MAY FLOW PAST LOWEST LAYER
                                                   Max.-Head-Change                         Max.-Flux-Residual
  Residual-Control   Outer-Iter.   Inner-Iter.     Column Row Layer    Maximum-Head-Change  Column Row Layer    Maximum-Flux-Residual          L2-NORM 
          0                 1           5             3   57     1       0.1846799927E+00       8   39    1        -0.1595986313E+02      0.1860769953E+03
          0                 2           3            59   12     1       0.5497434656E-01      63   38    1         0.6220518390E+01      0.4258211042E+02
          0                 3           2            64   38     1       0.3770882326E-02      64   38    1         0.5316398764E+01      0.1756481048E+02
          0                 4           2            63   38     1       0.4171210707E-02      63   38    1         0.5893615464E+01      0.1066045762E+02
          0                 5           2            64   38     1       0.1721455791E-02      64   38    1         0.2439902022E+01      0.4257533375E+01
          0                 6           1            64   38     1       0.4655574803E-03      64   38    1         0.6617860626E+00      0.1654863312E+01

    ------------------------------------------------
       NWT REQUIRED            6 OUTER ITERATIONS 
       AND A TOTAL OF         15 INNER ITERATIONS.
    ------------------------------------------------

 NO OUTPUT CONTROL FOR STRESS PERIOD    6   TIME STEP   27
 ***WARNING***NUZTOP IS 3 AND ALL LAYERS  IN ROW           39  AND COLUMN           76  ARE INACTIVE.
 UNSATURATED FLOW WILL NOT BE ADDED TO ANY LAYER-- SOME WATER MAY FLOW PAST LOWEST LAYER
 ***WARNING***NUZTOP IS 3 AND ALL LAYERS  IN ROW           40  AND COLUMN           76  ARE INACTIVE.
 UNSATURATED FLOW WILL NOT BE ADDED TO ANY LAYER-- SOME WATER MAY FLOW PAST LOWEST LAYER
                                                   Max.-Head-Change                         Max.-Flux-Residual
  Residual-Control   Outer-Iter.   Inner-Iter.     Column Row Layer    Maximum-Head-Change  Column Row Layer    Maximum-Flux-Residual          L2-NORM 
          0                 1           4             3   58     1       0.2298387572E+00       8   39    1        -0.1593453139E+02      0.1829608294E+03
          0                 2           3            52   56     1      -0.3128768568E-01       4   48    1        -0.4654321374E+01      0.4134923761E+02
          0                 3           2             6   49     1      -0.3397644433E-02       6   49    1        -0.2218273952E+01      0.1584743468E+02
          0                 4           2             6   49     1      -0.1705936717E-02       6   49    1        -0.1113784441E+01      0.6698720289E+01
          0                 5           1             6   49     1      -0.8565568173E-03       6   49    1        -0.5592225415E+00      0.3078466985E+01

    ------------------------------------------------
       NWT REQUIRED            5 OUTER ITERATIONS 
       AND A TOTAL OF         12 INNER ITERATIONS.
    ------------------------------------------------

 NO OUTPUT CONTROL FOR STRESS PERIOD    6   TIME STEP   28



 STREAM LISTING     PERIOD      6   STEP       28

 LAYER ROW COL. STREAM  RCH.   FLOW INTO    STREAM     FLOW OUT OF   OVRLND.    DIRECT     STREAM      STREAM      STREAM     STREAM  STREAMBED   FLOW TO   CHNG. UNSAT. 
                SEG.NO.  NO.   STRM. RCH.    LOSS       STRM. RCH.   RUNOFF     PRECIP       ET         HEAD        DEPTH      WIDTH  CONDCTNC.   WAT. TAB.

   1   18   62     1     1    0.0000E+00 -4.1038E+00   4.9740E+00  8.702E-01  0.000E+00  0.000E+00  2.07300E+03  3.190E-04  3.000E+00  1.909E+03  0.000E+00  0.000E+00
   1   19   63     1     2    4.9740E+00 -4.6182E+01   5.2026E+01  8.702E-01  0.000E+00  0.000E+00  2.06300E+03  1.332E-03  3.000E+00  1.909E+03  0.000E+00  0.000E+00
   1   20   64     1     3    5.2026E+01 -7.4674E+01   1.2757E+02  8.702E-01  0.000E+00  0.000E+00  2.05400E+03  2.900E-03  3.000E+00  1.630E+03  0.000E+00  0.000E+00
   1   21   64     1     4    1.2757E+02 -7.9364E+01   2.0780E+02  8.702E-01  0.000E+00  0.000E+00  2.05101E+03  5.193E-03  3.000E+00  1.630E+03  0.000E+00  0.000E+00
   1   22   65     1     5    2.0780E+02 -1.0565E+01   2.1924E+02  8.702E-01  0.000E+00  0.000E+00  2.04801E+03  5.115E-03  3.000E+00  9.546E+02  0.000E+00  0.000E+00
   1   20   66     2     1    0.0000E+00 -4.2737E+01   4.2737E+01  0.000E+00  0.000E+00  0.000E+00  2.05300E+03  1.582E-03  3.000E+00  1.909E+03  0.000E+00  0.000E+00
   1   21   65     2     2    4.2737E+01  7.2933E+00   3.5444E+01  0.000E+00  0.000E+00  0.000E+00  2.05100E+03  2.290E-03  3.000E+00  1.630E+03  0.000E+00  0.000E+00
   1   22   65     2     3    3.5444E+01 -9.7773E+00   4.5221E+01  0.000E+00  0.000E+00  0.000E+00  2.04800E+03  1.698E-03  3.000E+00  6.750E+02  0.000E+00  0.000E+00
   1   22   65     3     1    2.6446E+02 -7.3562E+00   2.7182E+02  0.000E+00  0.000E+00  0.000E+00  2.04801E+03  5.284E-03  3.000E+00  6.750E+02  0.000E+00  0.000E+00
   1   23   65     3     2    2.7182E+02 -8.6815E+01   3.5863E+02  0.000E+00  0.000E+00  0.000E+00  2.04501E+03  9.337E-03  3.000E+00  1.630E+03  0.000E+00  0.000E+00
   1   24   66     3     3    3.5863E+02 -1.7264E+01   3.7590E+02  0.000E+00  0.000E+00  0.000E+00  2.04536E+03  3.565E-01  3.000E+00  1.909E+03  0.000E+00  0.000E+00
   1   25   67     3     4    3.7590E+02  1.4660E+01   3.6124E+02  0.000E+00  0.000E+00  0.000E+00  2.04501E+03  1.076E-02  3.000E+00  1.909E+03  0.000E+00  0.000E+00
   1   26   68     3     5    3.6124E+02 -1.1538E+01   3.7277E+02  0.000E+00  0.000E+00  0.000E+00  2.04201E+03  9.385E-03  3.000E+00  1.630E+03  0.000E+00  0.000E+00
   1   27   68     3     6    3.7277E+02  8.1517E+01   2.9126E+02  0.000E+00  0.000E+00  0.000E+00  2.04101E+03  7.826E-03  3.000E+00  1.630E+03  0.000E+00  0.000E+00
   1   28   69     3     7    2.9126E+02  9.7776E+01   1.9348E+02  0.000E+00  0.000E+00  0.000E+00  2.03601E+03  5.264E-03  3.000E+00  1.630E+03  9.804E+01 -2.675E-01
   1   29   69     3     8    1.9348E+02  4.1384E+01   1.5210E+02  0.000E+00  0.000E+00  0.000E+00  2.02900E+03  3.965E-03  3.000E+00  1.350E+03  0.000E+00  0.000E+00
   1   30   69     3     9    1.5210E+02  1.2897E+01   1.3920E+02  0.000E+00  0.000E+00  0.000E+00  2.02300E+03  3.435E-03  3.000E+00  1.630E+03  0.000E+00  0.000E+00
   1   31   70     3    10    1.3920E+02 -1.0855E+02   2.4775E+02  0.000E+00  0.000E+00  0.000E+00  2.01100E+03  4.072E-03  3.000E+00  1.630E+03  0.000E+00  0.000E+00
   1   32   70     3    11    2.4775E+02 -2.0401E+02   4.5176E+02  0.000E+00  0.000E+00  0.000E+00  2.00501E+03  7.000E-03  3.000E+00  1.350E+03  0.000E+00  0.000E+00
   1   33   70     3    12    4.5176E+02  1.7921E+01   4.3384E+02  0.000E+00  0.000E+00  0.000E+00  2.00301E+03  6.582E-03  3.000E+00  1.630E+03  0.000E+00  0.000E+00
   1   34   69     3    13    4.3384E+02 -2.4134E+01   4.5797E+02  0.000E+00  0.000E+00  0.000E+00  1.98601E+03  5.763E-03  3.000E+00  1.630E+03  0.000E+00  0.000E+00
   1   35   69     3    14    4.5797E+02 -3.8234E+01   4.9621E+02  0.000E+00  0.000E+00  0.000E+00  1.97301E+03  6.505E-03  3.000E+00  1.350E+03  0.000E+00  0.000E+00
   1   36   69     3    15    4.9621E+02  7.8766E+00   4.8833E+02  0.000E+00  0.000E+00  0.000E+00  1.96701E+03  7.265E-03  3.000E+00  1.350E+03  0.000E+00  0.000E+00
   1   37   69     3    16    4.8833E+02  1.3326E+01   4.7501E+02  0.000E+00  0.000E+00  0.000E+00  1.95901E+03  7.171E-03  3.000E+00  1.350E+03  0.000E+00  0.000E+00
   1   38   69     3    17    4.7501E+02  1.6744E+01   4.5826E+02  0.000E+00  0.000E+00  0.000E+00  1.95301E+03  7.612E-03  3.000E+00  1.630E+03  0.000E+00  0.000E+00
   1   39   70     3    18    4.5826E+02 -5.3292E+00   4.6359E+02  0.000E+00  0.000E+00  0.000E+00  1.94601E+03  6.766E-03  3.000E+00  9.546E+02  0.000E+00  0.000E+00
   1   25   49     4     1    0.0000E+00 -1.5734E+02   1.5734E+02  0.000E+00  0.000E+00  0.000E+00  2.03500E+03  2.375E-03  3.000E+00  1.909E+03  0.000E+00  0.000E+00
   1   26   50     4     2    1.5734E+02 -9.6298E+01   2.5364E+02  0.000E+00  0.000E+00  0.000E+00  2.02600E+03  4.584E-03  3.000E+00  1.909E+03  0.000E+00  0.000E+00
   1   27   51     4     3    2.5364E+02 -7.8575E+01   3.3221E+02  0.000E+00  0.000E+00  0.000E+00  2.01901E+03  5.895E-03  3.000E+00  1.630E+03  0.000E+00  0.000E+00
   1   28   51     4     4    3.3221E+02 -8.7018E+01   4.1923E+02  0.000E+00  0.000E+00  0.000E+00  2.01401E+03  7.230E-03  3.000E+00  1.630E+03  0.000E+00  0.000E+00
   1   29   52     4     5    4.1923E+02 -5.0041E+01   4.6927E+02  0.000E+00  0.000E+00  0.000E+00  2.00901E+03  7.994E-03  3.000E+00  1.630E+03  0.000E+00  0.000E+00
   1   30   52     4     6    4.6927E+02 -1.6824E+01   4.8609E+02  0.000E+00  0.000E+00  0.000E+00  2.00401E+03  7.891E-03  3.000E+00  1.350E+03  0.000E+00  0.000E+00
   1   31   52     4     7    4.8609E+02 -2.3657E+01   5.0975E+02  0.000E+00  0.000E+00  0.000E+00  1.99901E+03  9.004E-03  3.000E+00  1.350E+03  0.000E+00  0.000E+00
   1   32   52     4     8    5.0975E+02 -1.6860E+00   5.1144E+02  0.000E+00  0.000E+00  0.000E+00  1.99701E+03  9.292E-03  3.000E+00  1.630E+03  0.000E+00  0.000E+00
   1   33   53     4     9    5.1144E+02  7.3565E+00   5.0408E+02  0.000E+00  0.000E+00  0.000E+00  1.99101E+03  9.083E-03  3.000E+00  1.909E+03  0.000E+00  0.000E+00
   1   34   54     4    10    5.0408E+02  2.7081E+01   4.7700E+02  0.000E+00  0.000E+00  0.000E+00  1.98701E+03  9.182E-03  3.000E+00  1.909E+03  0.000E+00  0.000E+00
   1   35   55     4    11    4.7700E+02  3.8232E+01   4.3877E+02  0.000E+00  0.000E+00  0.000E+00  1.98201E+03  7.911E-03  3.000E+00  1.630E+03  0.000E+00  0.000E+00
   1   36   55     4    12    4.3877E+02 -5.9882E+01   4.9865E+02  0.000E+00  0.000E+00  0.000E+00  1.97601E+03  7.053E-03  3.000E+00  6.750E+02  0.000E+00  0.000E+00
   1   35   37     5     1    4.8466E+03 -6.3044E+01   4.9097E+03  0.000E+00  0.000E+00  0.000E+00  2.05402E+03  2.490E-02  3.000E+00  9.546E+02  0.000E+00  0.000E+00
   1   34   38     5     2    4.9097E+03 -1.2596E+02   5.0357E+03  0.000E+00  0.000E+00  0.000E+00  2.04603E+03  3.101E-02  3.000E+00  1.909E+03  0.000E+00  0.000E+00
   1   33   39     5     3    5.0357E+03 -2.4299E+02   5.2786E+03  0.000E+00  0.000E+00  0.000E+00  2.03804E+03  3.767E-02  3.000E+00  1.909E+03  0.000E+00  0.000E+00
   1   32   40     5     4    5.2786E+03  1.0530E+02   5.1733E+03  0.000E+00  0.000E+00  0.000E+00  2.03704E+03  3.751E-02  3.000E+00  1.630E+03  0.000E+00  0.000E+00
   1   32   41     5     5    5.1733E+03 -1.3875E+02   5.3121E+03  0.000E+00  0.000E+00  0.000E+00  2.03003E+03  3.145E-02  3.000E+00  1.350E+03  0.000E+00  0.000E+00
   1   32   42     5     6    5.3121E+03 -1.7282E+02   5.4849E+03  0.000E+00  0.000E+00  0.000E+00  2.02504E+03  3.763E-02  3.000E+00  1.350E+03  0.000E+00  0.000E+00
   1   32   43     5     7    5.4849E+03 -6.0799E+01   5.5457E+03  0.000E+00  0.000E+00  0.000E+00  2.02304E+03  4.223E-02  3.000E+00  1.630E+03  0.000E+00  0.000E+00
   1   33   44     5     8    5.5457E+03 -1.4808E+02   5.6938E+03  0.000E+00  0.000E+00  0.000E+00  2.01904E+03  4.277E-02  3.000E+00  1.909E+03  0.000E+00  0.000E+00
   1   34   45     5     9    5.6938E+03 -2.4671E+01   5.7185E+03  0.000E+00  0.000E+00  0.000E+00  2.01604E+03  3.954E-02  3.000E+00  1.630E+03  0.000E+00  0.000E+00
   1   34   46     5    10    5.7185E+03 -1.0539E+02   5.8238E+03  0.000E+00  0.000E+00  0.000E+00  2.01104E+03  3.632E-02  3.000E+00  1.350E+03  0.000E+00  0.000E+00
   1   34   47     5    11    5.8238E+03  6.5110E+00   5.8173E+03  0.000E+00  0.000E+00  0.000E+00  2.00703E+03  2.873E-02  3.000E+00  6.750E+02  0.000E+00  0.000E+00
   1   34   47     6     1    5.8350E+03  5.0652E+00   5.8299E+03  0.000E+00  0.000E+00  0.000E+00  2.00703E+03  2.659E-02  3.000E+00  6.750E+02  0.000E+00  0.000E+00
   1   34   48     6     2    5.8299E+03 -1.3128E+02   5.9612E+03  0.000E+00  0.000E+00  0.000E+00  2.00103E+03  3.486E-02  3.000E+00  1.630E+03  0.000E+00  0.000E+00
   1   35   49     6     3    5.9612E+03 -2.7367E+02   6.2349E+03  0.000E+00  0.000E+00  0.000E+00  1.99404E+03  3.740E-02  3.000E+00  1.630E+03  0.000E+00  0.000E+00
   1   35   50     6     4    6.2349E+03 -2.0137E+02   6.4362E+03  0.000E+00  0.000E+00  0.000E+00  1.99005E+03  4.582E-02  3.000E+00  1.350E+03  0.000E+00  0.000E+00
   1   35   51     6     5    6.4362E+03  2.8537E+01   6.4077E+03  0.000E+00  0.000E+00  0.000E+00  1.98905E+03  4.627E-02  3.000E+00  1.630E+03  0.000E+00  0.000E+00
   1   36   52     6     6    6.4077E+03 -1.3302E+02   6.5407E+03  0.000E+00  0.000E+00  0.000E+00  1.98404E+03  4.117E-02  3.000E+00  1.630E+03  0.000E+00  0.000E+00
   1   36   53     6     7    6.5407E+03 -2.3464E+02   6.7754E+03  0.000E+00  0.000E+00  0.000E+00  1.98005E+03  5.340E-02  3.000E+00  1.630E+03  0.000E+00  0.000E+00
   1   37   54     6     8    6.7754E+03 -4.8018E+01   6.8234E+03  0.000E+00  0.000E+00  0.000E+00  1.98006E+03  5.671E-02  3.000E+00  1.909E+03  0.000E+00  0.000E+00
   1   36   55     6     9    6.8234E+03 -5.0116E+01   6.8735E+03  0.000E+00  0.000E+00  0.000E+00  1.97604E+03  4.327E-02  3.000E+00  9.546E+02  0.000E+00  0.000E+00
   1   36   34     7     1    2.0085E+03 -5.1335E+01   2.0599E+03  0.000E+00  0.000E+00  0.000E+00  2.07701E+03  1.339E-02  3.000E+00  9.546E+02  0.000E+00  0.000E+00
   1   35   35     7     2    2.0599E+03 -1.0295E+02   2.1628E+03  0.000E+00  0.000E+00  0.000E+00  2.06702E+03  1.803E-02  3.000E+00  1.630E+03  0.000E+00  0.000E+00
   1   35   36     7     3    2.1628E+03  2.3160E+01   2.1396E+03  0.000E+00  0.000E+00  0.000E+00  2.06202E+03  1.799E-02  3.000E+00  1.350E+03  0.000E+00  0.000E+00
   1   35   37     7     4    2.1396E+03 -5.2081E+01   2.1917E+03  0.000E+00  0.000E+00  0.000E+00  2.05401E+03  1.379E-02  3.000E+00  6.750E+02  0.000E+00  0.000E+00
   1   52   49     8     1    0.0000E+00 -2.0814E+02   2.0814E+02  0.000E+00  0.000E+00  0.000E+00  2.12100E+03  2.895E-03  3.000E+00  1.909E+03  0.000E+00  0.000E+00
   1   51   48     8     2    2.0814E+02 -2.0064E+02   4.0878E+02  0.000E+00  0.000E+00  0.000E+00  2.11701E+03  8.865E-03  3.000E+00  1.909E+03  0.000E+00  0.000E+00
   1   50   47     8     3    4.0878E+02  9.7776E+01   3.1100E+02  0.000E+00  0.000E+00  0.000E+00  2.11701E+03  7.533E-03  3.000E+00  1.630E+03  9.776E+01  1.844E-02
   1   49   47     8     4    3.1100E+02 -2.1187E+02   5.2287E+02  0.000E+00  0.000E+00  0.000E+00  2.10901E+03  7.695E-03  3.000E+00  1.630E+03  0.000E+00  0.000E+00
   1   48   46     8     5    5.2287E+02  1.0850E+01   5.1202E+02  0.000E+00  0.000E+00  0.000E+00  2.10701E+03  1.153E-02  3.000E+00  1.630E+03  0.000E+00  0.000E+00
   1   47   46     8     6    5.1202E+02  8.9785E+01   4.2224E+02  0.000E+00  0.000E+00  0.000E+00  2.10501E+03  1.025E-02  3.000E+00  1.350E+03  0.000E+00  0.000E+00
   1   46   46     8     7    4.2224E+02  8.1000E+01   3.4124E+02  0.000E+00  0.000E+00  0.000E+00  2.10301E+03  8.040E-03  3.000E+00  1.350E+03  8.109E+01 -9.237E-02
   1   45   46     8     8    3.4124E+02  8.1000E+01   2.6024E+02  0.000E+00  0.000E+00  0.000E+00  2.09901E+03  5.660E-03  3.000E+00  1.350E+03  8.120E+01 -2.047E-01
   1   44   46     8     9    2.6024E+02  8.1000E+01   1.7924E+02  0.000E+00  0.000E+00  0.000E+00  2.09100E+03  4.085E-03  3.000E+00  1.350E+03  8.125E+01 -2.515E-01
   1   43   46     8    10    1.7924E+02  1.3137E+02   4.7870E+01  0.000E+00  0.000E+00  0.000E+00  2.08000E+03  2.749E-03  3.000E+00  1.350E+03  0.000E+00  0.000E+00
   1   42   46     8    11    4.7870E+01  4.7870E+01   0.0000E+00  0.000E+00  0.000E+00  0.000E+00  2.07200E+03  3.838E-04  3.000E+00  1.630E+03  4.798E+01 -1.067E-01
   1   41   45     8    12    0.0000E+00 -8.9785E+01   8.9785E+01  0.000E+00  0.000E+00  0.000E+00  2.06000E+03  1.699E-03  3.000E+00  1.630E+03  0.000E+00  0.000E+00
   1   40   45     8    13    8.9785E+01  8.1000E+01   8.7845E+00  0.000E+00  0.000E+00  0.000E+00  2.05400E+03  1.829E-03  3.000E+00  1.350E+03  8.109E+01 -9.041E-02
   1   39   45     8    14    8.7845E+00  8.7845E+00   0.0000E+00  0.000E+00  0.000E+00  0.000E+00  2.04600E+03  1.332E-04  3.000E+00  1.350E+03  8.481E+00  3.030E-01
   1   38   45     8    15    0.0000E+00  0.0000E+00   0.0000E+00  0.000E+00  0.000E+00  0.000E+00  2.03500E+03  0.000E+00  3.000E+00  1.350E+03  0.000E+00  0.000E+00
   1   37   45     8    16    0.0000E+00  0.0000E+00   0.0000E+00  0.000E+00  0.000E+00  0.000E+00  2.02700E+03  0.000E+00  3.000E+00  1.630E+03  0.000E+00  0.000E+00
   1   36   46     8    17    0.0000E+00  0.0000E+00   0.0000E+00  0.000E+00  0.000E+00  0.000E+00  2.02100E+03  0.000E+00  3.000E+00  1.630E+03  0.000E+00  0.000E+00
   1   35   46     8    18    0.0000E+00  0.0000E+00   0.0000E+00  0.000E+00  0.000E+00  0.000E+00  2.01400E+03  0.000E+00  3.000E+00  1.630E+03  0.000E+00  0.000E+00
   1   34   47     8    19    0.0000E+00 -1.7639E+01   1.7639E+01  0.000E+00  0.000E+00  0.000E+00  2.00700E+03  6.047E-04  3.000E+00  9.546E+02  0.000E+00  0.000E+00
   1   37   26     9     1    0.0000E+00  0.0000E+00   0.0000E+00  0.000E+00  0.000E+00  0.000E+00  2.14700E+03  0.000E+00  3.000E+00  1.350E+03  0.000E+00  0.000E+00
   1   37   27     9     2    0.0000E+00 -6.1990E+01   6.1990E+01  0.000E+00  0.000E+00  0.000E+00  2.13400E+03  1.207E-03  3.000E+00  1.350E+03  0.000E+00  0.000E+00
   1   37   28     9     3    6.1990E+01 -1.3592E+02   1.9791E+02  0.000E+00  0.000E+00  0.000E+00  2.12500E+03  3.157E-03  3.000E+00  1.630E+03  0.000E+00  0.000E+00
   1   36   29     9     4    1.9791E+02  8.8620E+00   1.8905E+02  0.000E+00  0.000E+00  0.000E+00  2.11500E+03  4.070E-03  3.000E+00  1.630E+03  0.000E+00  0.000E+00
   1   36   30     9     5    1.8905E+02 -8.1353E+01   2.7040E+02  0.000E+00  0.000E+00  0.000E+00  2.10700E+03  4.338E-03  3.000E+00  1.350E+03  0.000E+00  0.000E+00
   1   36   31     9     6    2.7040E+02 -1.9792E+02   4.6832E+02  0.000E+00  0.000E+00  0.000E+00  2.09801E+03  5.873E-03  3.000E+00  1.350E+03  0.000E+00  0.000E+00
   1   36   32     9     7    4.6832E+02 -1.4492E+02   6.1324E+02  0.000E+00  0.000E+00  0.000E+00  2.09101E+03  7.685E-03  3.000E+00  1.350E+03  0.000E+00  0.000E+00
   1   36   33     9     8    6.1324E+02 -1.3422E+02   7.4745E+02  0.000E+00  0.000E+00  0.000E+00  2.08401E+03  8.819E-03  3.000E+00  1.350E+03  0.000E+00  0.000E+00
   1   36   34     9     9    7.4745E+02 -4.0433E+01   7.8789E+02  0.000E+00  0.000E+00  0.000E+00  2.07701E+03  7.266E-03  3.000E+00  6.750E+02  0.000E+00  0.000E+00
   1   58   37    10     1    0.0000E+00 -1.1099E+02   1.1099E+02  0.000E+00  0.000E+00  0.000E+00  2.15000E+03  2.855E-03  3.000E+00  1.350E+03  0.000E+00  0.000E+00
   1   57   37    10     2    1.1099E+02 -8.7892E+01   1.9888E+02  0.000E+00  0.000E+00  0.000E+00  2.14700E+03  4.728E-03  3.000E+00  1.630E+03  0.000E+00  0.000E+00
   1   56   38    10     3    1.9888E+02 -1.0766E+01   2.0964E+02  0.000E+00  0.000E+00  0.000E+00  2.14301E+03  5.176E-03  3.000E+00  1.630E+03  0.000E+00  0.000E+00
   1   55   38    10     4    2.0964E+02 -1.6814E+02   3.7778E+02  0.000E+00  0.000E+00  0.000E+00  2.13801E+03  6.303E-03  3.000E+00  1.350E+03  0.000E+00  0.000E+00
   1   54   38    10     5    3.7778E+02 -1.1015E+02   4.8793E+02  0.000E+00  0.000E+00  0.000E+00  2.13501E+03  8.670E-03  3.000E+00  1.350E+03  0.000E+00  0.000E+00
   1   53   38    10     6    4.8793E+02 -1.0357E+02   5.9149E+02  0.000E+00  0.000E+00  0.000E+00  2.13201E+03  9.897E-03  3.000E+00  1.350E+03  0.000E+00  0.000E+00
   1   52   38    10     7    5.9149E+02 -1.6449E+02   7.5599E+02  0.000E+00  0.000E+00  0.000E+00  2.12901E+03  1.351E-02  3.000E+00  1.630E+03  0.000E+00  0.000E+00
   1   51   39    10     8    7.5599E+02  1.2019E+01   7.4397E+02  0.000E+00  0.000E+00  0.000E+00  2.12801E+03  1.441E-02  3.000E+00  1.630E+03  0.000E+00  0.000E+00
   1   50   39    10     9    7.4397E+02 -7.6887E+01   8.2085E+02  0.000E+00  0.000E+00  0.000E+00  2.12501E+03  1.249E-02  3.000E+00  1.630E+03  0.000E+00  0.000E+00
   1   49   38    10    10    8.2085E+02 -1.4671E+02   9.6757E+02  0.000E+00  0.000E+00  0.000E+00  2.12101E+03  1.420E-02  3.000E+00  1.909E+03  0.000E+00  0.000E+00
   1   48   37    10    11    9.6757E+02  2.5421E+01   9.4215E+02  0.000E+00  0.000E+00  0.000E+00  2.11801E+03  1.256E-02  3.000E+00  1.909E+03  0.000E+00  0.000E+00
   1   47   36    10    12    9.4215E+02 -3.3274E+02   1.2749E+03  0.000E+00  0.000E+00  0.000E+00  2.10901E+03  1.310E-02  3.000E+00  1.630E+03  0.000E+00  0.000E+00
   1   46   36    10    13    1.2749E+03 -1.2699E+02   1.4019E+03  0.000E+00  0.000E+00  0.000E+00  2.10602E+03  1.630E-02  3.000E+00  1.350E+03  0.000E+00  0.000E+00
   1   45   36    10    14    1.4019E+03 -1.6234E+02   1.5642E+03  0.000E+00  0.000E+00  0.000E+00  2.10202E+03  1.733E-02  3.000E+00  1.350E+03  0.000E+00  0.000E+00
   1   44   36    10    15    1.5642E+03 -9.0023E+01   1.6542E+03  0.000E+00  0.000E+00  0.000E+00  2.09902E+03  1.906E-02  3.000E+00  1.350E+03  0.000E+00  0.000E+00
   1   43   36    10    16    1.6542E+03  5.5386E+00   1.6487E+03  0.000E+00  0.000E+00  0.000E+00  2.09602E+03  1.814E-02  3.000E+00  1.630E+03  0.000E+00  0.000E+00
   1   42   37    10    17    1.6487E+03  9.7776E+01   1.5509E+03  0.000E+00  0.000E+00  0.000E+00  2.09001E+03  1.498E-02  3.000E+00  1.630E+03  9.773E+01  4.562E-02
   1   41   37    10    18    1.5509E+03 -2.2536E+02   1.7763E+03  0.000E+00  0.000E+00  0.000E+00  2.08001E+03  1.449E-02  3.000E+00  1.350E+03  0.000E+00  0.000E+00
   1   40   37    10    19    1.7763E+03 -3.2471E+02   2.1010E+03  0.000E+00  0.000E+00  0.000E+00  2.07402E+03  1.997E-02  3.000E+00  1.630E+03  0.000E+00  0.000E+00
   1   39   38    10    20    2.1010E+03 -2.5106E+01   2.1261E+03  0.000E+00  0.000E+00  0.000E+00  2.07102E+03  2.268E-02  3.000E+00  1.630E+03  0.000E+00  0.000E+00
   1   38   38    10    21    2.1261E+03  2.2367E+01   2.1037E+03  0.000E+00  0.000E+00  0.000E+00  2.06702E+03  2.039E-02  3.000E+00  1.630E+03  0.000E+00  0.000E+00
   1   37   37    10    22    2.1037E+03 -2.9496E+02   2.3987E+03  0.000E+00  0.000E+00  0.000E+00  2.06102E+03  2.116E-02  3.000E+00  1.630E+03  0.000E+00  0.000E+00
   1   36   37    10    23    2.3987E+03 -2.0652E+02   2.6052E+03  0.000E+00  0.000E+00  0.000E+00  2.05702E+03  2.372E-02  3.000E+00  1.350E+03  0.000E+00  0.000E+00
   1   35   37    10    24    2.6052E+03 -4.9687E+01   2.6549E+03  0.000E+00  0.000E+00  0.000E+00  2.05402E+03  1.733E-02  3.000E+00  6.750E+02  0.000E+00  0.000E+00
   1   36   55    11     1    7.3721E+03 -3.9733E+01   7.4119E+03  0.000E+00  0.000E+00  0.000E+00  1.97604E+03  3.690E-02  3.000E+00  6.750E+02  0.000E+00  0.000E+00
   1   36   56    11     2    7.4119E+03 -5.8786E+01   7.4707E+03  0.000E+00  0.000E+00  0.000E+00  1.97506E+03  6.223E-02  3.000E+00  1.630E+03  0.000E+00  0.000E+00
   1   37   57    11     3    7.4707E+03 -1.3852E+02   7.6092E+03  0.000E+00  0.000E+00  0.000E+00  1.97306E+03  6.273E-02  3.000E+00  1.630E+03  0.000E+00  0.000E+00
   1   37   58    11     4    7.6092E+03 -9.4438E+01   7.7036E+03  0.000E+00  0.000E+00  0.000E+00  1.97208E+03  8.319E-02  3.000E+00  1.350E+03  0.000E+00  0.000E+00
   1   37   59    11     5    7.7036E+03  2.8990E+00   7.7007E+03  0.000E+00  0.000E+00  0.000E+00  1.97207E+03  6.781E-02  3.000E+00  1.350E+03  0.000E+00  0.000E+00
   1   37   60    11     6    7.7007E+03 -1.7967E+01   7.7187E+03  0.000E+00  0.000E+00  0.000E+00  1.97005E+03  5.454E-02  3.000E+00  1.630E+03  0.000E+00  0.000E+00
   1   38   61    11     7    7.7187E+03 -9.2240E+01   7.8109E+03  0.000E+00  0.000E+00  0.000E+00  1.96705E+03  4.951E-02  3.000E+00  1.630E+03  0.000E+00  0.000E+00
   1   38   62    11     8    7.8109E+03 -9.6587E+01   7.9075E+03  0.000E+00  0.000E+00  0.000E+00  1.96305E+03  4.528E-02  3.000E+00  6.750E+02  0.000E+00  0.000E+00
   1   51   11    12     1    0.0000E+00 -4.7652E+02   4.7652E+02  0.000E+00  0.000E+00  0.000E+00  2.38700E+03  4.554E-03  3.000E+00  1.909E+03  0.000E+00  0.000E+00
   1   50   12    12     2    4.7652E+02 -5.6278E+01   5.3280E+02  0.000E+00  0.000E+00  0.000E+00  2.37501E+03  6.812E-03  3.000E+00  1.630E+03  0.000E+00  0.000E+00
   1   49   12    12     3    5.3280E+02 -3.7652E+02   9.0932E+02  0.000E+00  0.000E+00  0.000E+00  2.36501E+03  8.817E-03  3.000E+00  1.630E+03  0.000E+00  0.000E+00
   1   48   13    12     4    9.0932E+02 -1.7004E+02   1.0794E+03  0.000E+00  0.000E+00  0.000E+00  2.35601E+03  1.148E-02  3.000E+00  1.630E+03  0.000E+00  0.000E+00
   1   48   14    12     5    1.0794E+03 -1.5881E+02   1.2382E+03  0.000E+00  0.000E+00  0.000E+00  2.35001E+03  1.234E-02  3.000E+00  1.630E+03  0.000E+00  0.000E+00
   1   47   15    12     6    1.2382E+03 -1.6163E+02   1.3998E+03  0.000E+00  0.000E+00  0.000E+00  2.34001E+03  1.360E-02  3.000E+00  1.630E+03  0.000E+00  0.000E+00
   1   47   16    12     7    1.3998E+03 -1.2147E+02   1.5213E+03  0.000E+00  0.000E+00  0.000E+00  2.33502E+03  1.587E-02  3.000E+00  1.630E+03  0.000E+00  0.000E+00
   1   46   17    12     8    1.5213E+03  8.4598E+01   1.4367E+03  0.000E+00  0.000E+00  0.000E+00  2.32901E+03  1.487E-02  3.000E+00  1.630E+03  0.000E+00  0.000E+00
   1   46   18    12     9    1.4367E+03  1.7598E+02   1.2607E+03  0.000E+00  0.000E+00  0.000E+00  2.32101E+03  1.146E-02  3.000E+00  1.350E+03  0.000E+00  0.000E+00
   1   46   19    12    10    1.2607E+03 -1.5493E+02   1.4156E+03  0.000E+00  0.000E+00  0.000E+00  2.30601E+03  1.296E-02  3.000E+00  1.350E+03  0.000E+00  0.000E+00
   1   46   20    12    11    1.4156E+03  9.7776E+01   1.3178E+03  0.000E+00  0.000E+00  0.000E+00  2.30601E+03  1.107E-02  3.000E+00  1.630E+03  9.775E+01  2.237E-02
   1   45   21    12    12    1.3178E+03 -4.6782E+01   1.3646E+03  0.000E+00  0.000E+00  0.000E+00  2.27401E+03  9.701E-03  3.000E+00  1.909E+03  0.000E+00  0.000E+00
   1   44   22    12    13    1.3646E+03 -1.3470E+02   1.4993E+03  0.000E+00  0.000E+00  0.000E+00  2.25001E+03  1.092E-02  3.000E+00  1.909E+03  0.000E+00  0.000E+00
   1   43   23    12    14    1.4993E+03  1.5806E+02   1.3413E+03  0.000E+00  0.000E+00  0.000E+00  2.23101E+03  1.095E-02  3.000E+00  1.909E+03  0.000E+00  0.000E+00
   1   42   24    12    15    1.3413E+03 -7.4986E+01   1.4163E+03  0.000E+00  0.000E+00  0.000E+00  2.20801E+03  1.123E-02  3.000E+00  1.630E+03  0.000E+00  0.000E+00
   1   42   25    12    16    1.4163E+03 -1.2422E+01   1.4287E+03  0.000E+00  0.000E+00  0.000E+00  2.20001E+03  1.234E-02  3.000E+00  1.350E+03  0.000E+00  0.000E+00
   1   42   26    12    17    1.4287E+03  1.3001E+02   1.2987E+03  0.000E+00  0.000E+00  0.000E+00  2.18801E+03  1.065E-02  3.000E+00  1.350E+03  0.000E+00  0.000E+00
   1   42   27    12    18    1.2987E+03 -2.5348E+02   1.5521E+03  0.000E+00  0.000E+00  0.000E+00  2.17001E+03  1.105E-02  3.000E+00  1.350E+03  0.000E+00  0.000E+00
   1   42   28    12    19    1.5521E+03 -8.1248E+01   1.6334E+03  0.000E+00  0.000E+00  0.000E+00  2.15901E+03  1.263E-02  3.000E+00  1.630E+03  0.000E+00  0.000E+00
   1   41   29    12    20    1.6334E+03  1.6513E+02   1.4683E+03  0.000E+00  0.000E+00  0.000E+00  2.14201E+03  1.252E-02  3.000E+00  1.909E+03  0.000E+00  0.000E+00
   1   40   30    12    21    1.4683E+03  6.5668E+01   1.4026E+03  0.000E+00  0.000E+00  0.000E+00  2.12701E+03  1.258E-02  3.000E+00  1.909E+03  0.000E+00  0.000E+00
   1   39   31    12    22    1.4026E+03  1.1455E+02   1.2880E+03  0.000E+00  0.000E+00  0.000E+00  2.11501E+03  1.253E-02  3.000E+00  1.909E+03  1.144E+02  1.025E-01
   1   38   32    12    23    1.2880E+03  1.1455E+02   1.1735E+03  0.000E+00  0.000E+00  0.000E+00  2.10301E+03  1.160E-02  3.000E+00  1.909E+03  1.145E+02  9.015E-02
   1   37   33    12    24    1.1735E+03  7.7081E+00   1.1658E+03  0.000E+00  0.000E+00  0.000E+00  2.08901E+03  1.125E-02  3.000E+00  1.909E+03  0.000E+00  0.000E+00
   1   36   34    12    25    1.1658E+03 -5.4836E+01   1.2206E+03  0.000E+00  0.000E+00  0.000E+00  2.07701E+03  9.723E-03  3.000E+00  9.546E+02  0.000E+00  0.000E+00
   1   38   62    13     1    8.0849E+03 -1.0345E+02   8.1883E+03  0.000E+00  0.000E+00  0.000E+00  1.96304E+03  3.512E-02  3.000E+00  6.750E+02  0.000E+00  0.000E+00
   1   38   63    13     2    8.1883E+03 -1.4135E+01   8.2025E+03  0.000E+00  0.000E+00  0.000E+00  1.96530E+03  2.297E+00  3.000E+00  1.350E+03  0.000E+00  0.000E+00
   1   38   64    13     3    8.2025E+03  1.3094E+01   8.1894E+03  0.000E+00  0.000E+00  0.000E+00  1.96530E+03  2.297E+00  3.000E+00  1.350E+03  0.000E+00  0.000E+00
   1   38   65    13     4    8.1894E+03 -3.6698E+01   8.2261E+03  0.000E+00  0.000E+00  0.000E+00  1.96306E+03  6.238E-02  3.000E+00  1.350E+03  0.000E+00  0.000E+00
   1   38   66    13     5    8.2261E+03 -7.3763E+01   8.2998E+03  0.000E+00  0.000E+00  0.000E+00  1.96005E+03  5.373E-02  3.000E+00  1.350E+03  0.000E+00  0.000E+00
   1   38   67    13     6    8.2998E+03 -4.6638E+01   8.3465E+03  0.000E+00  0.000E+00  0.000E+00  1.95805E+03  5.162E-02  3.000E+00  1.630E+03  0.000E+00  0.000E+00
   1   39   68    13     7    8.3465E+03 -1.9674E+01   8.3661E+03  0.000E+00  0.000E+00  0.000E+00  1.95305E+03  4.649E-02  3.000E+00  1.630E+03  0.000E+00  0.000E+00
   1   39   69    13     8    8.3661E+03 -7.7480E+01   8.4436E+03  0.000E+00  0.000E+00  0.000E+00  1.94805E+03  4.907E-02  3.000E+00  1.350E+03  0.000E+00  0.000E+00
   1   39   70    13     9    8.4436E+03  1.9901E+01   8.4237E+03  0.000E+00  0.000E+00  0.000E+00  1.94604E+03  4.183E-02  3.000E+00  6.750E+02  0.000E+00  0.000E+00
   1   46   61    14     1    0.0000E+00 -1.8363E+01   1.8363E+01  0.000E+00  0.000E+00  0.000E+00  2.01700E+03  6.679E-04  3.000E+00  1.350E+03  0.000E+00  0.000E+00
   1   45   61    14     2    1.8363E+01  1.8363E+01   0.0000E+00  0.000E+00  0.000E+00  0.000E+00  2.01000E+03  2.442E-04  3.000E+00  1.350E+03  0.000E+00  0.000E+00
   1   44   61    14     3    0.0000E+00  0.0000E+00   0.0000E+00  0.000E+00  0.000E+00  0.000E+00  2.00600E+03  0.000E+00  3.000E+00  1.350E+03  0.000E+00  0.000E+00
   1   43   61    14     4    0.0000E+00  0.0000E+00   0.0000E+00  0.000E+00  0.000E+00  0.000E+00  1.99900E+03  0.000E+00  3.000E+00  1.350E+03  0.000E+00  0.000E+00
   1   42   61    14     5    0.0000E+00  0.0000E+00   0.0000E+00  0.000E+00  0.000E+00  0.000E+00  1.99300E+03  0.000E+00  3.000E+00  1.350E+03  0.000E+00  0.000E+00
   1   41   61    14     6    0.0000E+00  0.0000E+00   0.0000E+00  0.000E+00  0.000E+00  0.000E+00  1.98500E+03  0.000E+00  3.000E+00  1.350E+03  0.000E+00  0.000E+00
   1   40   61    14     7    0.0000E+00 -2.9569E+01   2.9569E+01  0.000E+00  0.000E+00  0.000E+00  1.97800E+03  9.307E-04  3.000E+00  1.350E+03  0.000E+00  0.000E+00
   1   39   61    14     8    2.9569E+01  2.9569E+01   0.0000E+00  0.000E+00  0.000E+00  0.000E+00  1.97300E+03  3.133E-04  3.000E+00  1.630E+03  0.000E+00  0.000E+00
   1   38   62    14     9    0.0000E+00 -1.7735E+02   1.7735E+02  0.000E+00  0.000E+00  0.000E+00  1.96300E+03  2.593E-03  3.000E+00  9.546E+02  0.000E+00  0.000E+00
   1   39   70    15     1    8.8873E+03  1.5945E+01   8.8714E+03  0.000E+00  0.000E+00  0.000E+00  1.94604E+03  3.597E-02  3.000E+00  6.750E+02  0.000E+00  0.000E+00
   1   39   71    15     2    8.8714E+03 -1.0628E+02   8.9776E+03  0.000E+00  0.000E+00  0.000E+00  1.94206E+03  5.954E-02  3.000E+00  1.630E+03  0.000E+00  0.000E+00
   1   40   72    15     3    8.9776E+03 -2.8035E+01   9.0057E+03  0.000E+00  0.000E+00  0.000E+00  1.94106E+03  6.395E-02  3.000E+00  1.630E+03  0.000E+00  0.000E+00
   1   40   73    15     4    9.0057E+03 -4.5465E+01   9.0511E+03  0.000E+00  0.000E+00  0.000E+00  1.93806E+03  5.667E-02  3.000E+00  1.350E+03  0.000E+00  0.000E+00
   1   40   74    15     5    9.0511E+03 -2.1869E+01   9.0730E+03  0.000E+00  0.000E+00  0.000E+00  1.93606E+03  6.073E-02  3.000E+00  1.350E+03  0.000E+00  0.000E+00
   1   40   75    15     6    9.0730E+03 -1.3256E-01   9.0731E+03  0.000E+00  0.000E+00  0.000E+00  1.93405E+03  5.381E-02  3.000E+00  6.750E+02  0.000E+00  0.000E+00
   1   40   75    16     1    9.9184E+03 -3.5791E+00   9.9220E+03  0.000E+00  0.000E+00  0.000E+00  1.93405E+03  4.870E-02  3.000E+00  6.750E+02  0.000E+00  0.000E+00
   1   40   76    16     2    9.9220E+03  0.0000E+00   9.9220E+03  0.000E+00  0.000E+00  0.000E+00  1.93307E+03  6.990E-02  3.000E+00  0.000E+00  0.000E+00  0.000E+00
   1   55   73    17     1    0.0000E+00 -1.9083E+00   1.9083E+00  0.000E+00  0.000E+00  0.000E+00  2.04100E+03  1.701E-04  3.000E+00  1.350E+03  0.000E+00  0.000E+00
   1   54   73    17     2    1.9083E+00  1.9083E+00   0.0000E+00  0.000E+00  0.000E+00  0.000E+00  2.02900E+03  4.968E-05  3.000E+00  1.350E+03  1.896E+00  1.209E-02
   1   53   73    17     3    0.0000E+00  0.0000E+00   0.0000E+00  0.000E+00  0.000E+00  0.000E+00  2.01700E+03  0.000E+00  3.000E+00  1.350E+03  0.000E+00  0.000E+00
   1   52   73    17     4    0.0000E+00 -5.2167E+01   5.2167E+01  0.000E+00  0.000E+00  0.000E+00  2.01000E+03  1.206E-03  3.000E+00  1.630E+03  0.000E+00  0.000E+00
   1   51   72    17     5    5.2167E+01 -2.4160E+02   2.9377E+02  0.000E+00  0.000E+00  0.000E+00  1.99800E+03  3.871E-03  3.000E+00  1.630E+03  0.000E+00  0.000E+00
   1   50   72    17     6    2.9377E+02 -1.4224E+01   3.0799E+02  0.000E+00  0.000E+00  0.000E+00  1.99301E+03  5.662E-03  3.000E+00  1.350E+03  0.000E+00  0.000E+00
   1   49   72    17     7    3.0799E+02 -7.8761E+01   3.8675E+02  0.000E+00  0.000E+00  0.000E+00  1.98601E+03  5.892E-03  3.000E+00  1.350E+03  0.000E+00  0.000E+00
   1   48   72    17     8    3.8675E+02 -1.1681E+02   5.0356E+02  0.000E+00  0.000E+00  0.000E+00  1.97901E+03  6.838E-03  3.000E+00  1.350E+03  0.000E+00  0.000E+00
   1   47   72    17     9    5.0356E+02 -1.8239E+02   6.8596E+02  0.000E+00  0.000E+00  0.000E+00  1.97201E+03  8.319E-03  3.000E+00  1.350E+03  0.000E+00  0.000E+00
   1   46   72    17    10    6.8596E+02 -1.7269E+01   7.0323E+02  0.000E+00  0.000E+00  0.000E+00  1.96601E+03  9.353E-03  3.000E+00  1.350E+03  0.000E+00  0.000E+00
   1   45   72    17    11    7.0323E+02 -3.1882E+00   7.0641E+02  0.000E+00  0.000E+00  0.000E+00  1.96001E+03  9.532E-03  3.000E+00  1.630E+03  0.000E+00  0.000E+00
   1   44   73    17    12    7.0641E+02 -1.8345E+01   7.2476E+02  0.000E+00  0.000E+00  0.000E+00  1.95201E+03  9.835E-03  3.000E+00  1.630E+03  0.000E+00  0.000E+00
   1   43   73    17    13    7.2476E+02 -3.8149E+01   7.6291E+02  0.000E+00  0.000E+00  0.000E+00  1.94701E+03  1.101E-02  3.000E+00  1.350E+03  0.000E+00  0.000E+00
   1   42   73    17    14    7.6291E+02 -1.6857E+00   7.6459E+02  0.000E+00  0.000E+00  0.000E+00  1.94401E+03  1.142E-02  3.000E+00  1.630E+03  0.000E+00  0.000E+00
   1   41   74    17    15    7.6459E+02 -4.0717E+01   8.0531E+02  0.000E+00  0.000E+00  0.000E+00  1.93801E+03  1.179E-02  3.000E+00  1.909E+03  0.000E+00  0.000E+00
   1   40   75    17    16    8.0531E+02 -3.9952E+01   8.4526E+02  0.000E+00  0.000E+00  0.000E+00  1.93401E+03  1.216E-02  3.000E+00  9.546E+02  0.000E+00  0.000E+00
   1   37   55    18     1    0.0000E+00  0.0000E+00   0.0000E+00  0.000E+00  0.000E+00  0.000E+00  2.00700E+03  0.000E+00  3.000E+00  1.630E+03  0.000E+00  0.000E+00
   1   36   54    19     1    0.0000E+00  0.0000E+00   0.0000E+00  0.000E+00  0.000E+00  0.000E+00  2.00700E+03  0.000E+00  3.000E+00  1.630E+03  0.000E+00  0.000E+00



1
  VOLUMETRIC BUDGET FOR UNSATURATED ZONE BENEATH STREAMS AT END OF TIME STEP    28 STRESS PERIOD   6
  ------------------------------------------------------------------------------------------------

    CUMULATIVE VOLUMES             L**3    RATES FOR THIS TIME STEP         L**3/T
    ------------------                     ------------------------


          STREAM LOSS =       163154.2344            STREAM LOSS =         1002.7684
    CHANGE IN STORAGE =           27.3707      CHANGE IN STORAGE =           -0.4190
       RECHARGE TO GW =       163126.6562         RECHARGE TO GW =         1003.1875

             TOTAL IN =       163154.2344               TOTAL IN =         1003.1874

            TOTAL OUT =       163154.0312              TOTAL OUT =         1003.1875

             IN - OUT =            0.2031               IN - OUT =       -6.1035E-05

  PERCENT DISCREPANCY =            0.00      PERCENT DISCREPANCY =            -0.00



 ***WARNING***NUZTOP IS 3 AND ALL LAYERS  IN ROW           39  AND COLUMN           76  ARE INACTIVE.
 UNSATURATED FLOW WILL NOT BE ADDED TO ANY LAYER-- SOME WATER MAY FLOW PAST LOWEST LAYER
 ***WARNING***NUZTOP IS 3 AND ALL LAYERS  IN ROW           40  AND COLUMN           76  ARE INACTIVE.
 UNSATURATED FLOW WILL NOT BE ADDED TO ANY LAYER-- SOME WATER MAY FLOW PAST LOWEST LAYER


UNSATURATED ZONE PACKAGE VOLUMETRIC BUDGET FOR  TIME STEP    28 STRESS PERIOD    6
  ------------------------------------------------------------------------------



     CUMULATIVE VOLUMES      L**3       RATES FOR THIS TIME STEP      L**3/T
     ------------------                 ------------------------

           IN:                                      IN:
           ---                                      ---
        INFILTRATION =       26653.0419          INFILTRATION =       0.0000E+00

          OUT:                                     OUT:
          ----                                     ----
              UZF ET =      658111.8355                UZF ET =           1.0273
        UZF RECHARGE =     2489923.7788          UZF RECHARGE =        9859.7349

            IN - OUT =    -3121382.5724              IN - OUT =       -9860.7622

          STORAGE:                                 STORAGE:
          --------                                 --------
      STORAGE CHANGE =    -3119402.4181        STORAGE CHANGE =       -9860.7010

 PERCENT DISCREPANCY IS DIFFERENCE BETWEEN IN-OUT MINUS CHANGE IN STORAGE
 DIVIDED BY THE AVERAGE OF IN AND OUT TIMES 100

 PERCENT DISCREPANCY =          -0.02     PERCENT DISCREPANCY =          -0.00






1
  VOLUMETRIC BUDGET FOR AGRICULTURAL FIELDS AT  END OF TIME STEP   28, STRESS PERIOD   6
  ------------------------------------------------------------------------------

     CUMULATIVE VOLUMES      L**3       RATES FOR THIS TIME STEP      L**3/T
     ------------------                 ------------------------

           IN:                                      IN:
           ---                                      ---
               AG WELLS  =           0.0000                 AG WELLS  =          -0.0000
      DIVERSION SEGMENTS =           0.0000        DIVERSION SEGMENTS =           0.0000
       IRRIGATION PONDS  =           0.0000         IRRIGATION PONDS  =           0.0000
           GW IRRIGATION =           0.0000             GW IRRIGATION =           0.0000
           SW IRRIGATION =           0.0000             SW IRRIGATION =           0.0000
        SYSTEM LOSSES GW =           0.0000          SYSTEM LOSSES GW =           0.0000
        SYSTEM LOSSES SW =           0.0000          SYSTEM LOSSES SW =          -0.0000

                TOTAL IN =           0.0000                  TOTAL IN =           0.0000

          OUT:                                     OUT:
          ----                                     ----
               AG WELLS  =           0.0000                 AG WELLS  =           0.0000
      DIVERSION SEGMENTS =           0.0000        DIVERSION SEGMENTS =           0.0000
       IRRIGATION PONDS  =           0.0000         IRRIGATION PONDS  =           0.0000
           GW IRRIGATION =           0.0000             GW IRRIGATION =           0.0000
           SW IRRIGATION =           0.0000             SW IRRIGATION =           0.0000
        SYSTEM LOSSES GW =           0.0000          SYSTEM LOSSES GW =           0.0000
        SYSTEM LOSSES SW =           0.0000          SYSTEM LOSSES SW =           0.0000

               TOTAL OUT =           0.0000                 TOTAL OUT =           0.0000

                IN - OUT =           0.0000                  IN - OUT =           0.0000

     PERCENT DISCREPANCY =           0.00         PERCENT DISCREPANCY =           0.00



1
  VOLUMETRIC BUDGET FOR ENTIRE MODEL AT END OF TIME STEP   28, STRESS PERIOD   6
  ------------------------------------------------------------------------------

     CUMULATIVE VOLUMES      L**3       RATES FOR THIS TIME STEP      L**3/T
     ------------------                 ------------------------

           IN:                                      IN:
           ---                                      ---
             STORAGE     =      562700.9375               STORAGE     =        8022.5957
       CONSTANT HEAD     =          31.1512         CONSTANT HEAD     =           0.8091
      STREAM LEAKAGE     =      401313.3438        STREAM LEAKAGE     =        2651.1770
        UZF RECHARGE     =     2489937.7500          UZF RECHARGE     =        9859.7256
               GW ET     =           0.0000                 GW ET     =           0.0000
     SURFACE LEAKAGE     =           0.0000       SURFACE LEAKAGE     =           0.0000
           AG WELLS      =           0.0000             AG WELLS      =           0.0000

                TOTAL IN =     3453983.0000                  TOTAL IN =       20534.3086

          OUT:                                     OUT:
          ----                                     ----
             STORAGE     =     1006604.7500               STORAGE     =         978.4467
       CONSTANT HEAD     =        5430.5122         CONSTANT HEAD     =          35.0971
      STREAM LEAKAGE     =     1930134.0000        STREAM LEAKAGE     =       12568.3525
        UZF RECHARGE     =           0.0000          UZF RECHARGE     =           0.0000
               GW ET     =      493707.9062                 GW ET     =        6832.0352
     SURFACE LEAKAGE     =       18326.4121       SURFACE LEAKAGE     =         139.8131
           AG WELLS      =           0.0000             AG WELLS      =           0.0000

               TOTAL OUT =     3454203.7500                 TOTAL OUT =       20553.7441

                IN - OUT =        -220.7500                  IN - OUT =         -19.4355

     PERCENT DISCREPANCY =          -0.01         PERCENT DISCREPANCY =          -0.09






         TIME SUMMARY AT END OF TIME STEP   28 IN STRESS PERIOD    6
                    SECONDS     MINUTES      HOURS       DAYS        YEARS
                    -----------------------------------------------------------
   TIME STEP LENGTH  86400.      1440.0      24.000      1.0000     2.73785E-03
 STRESS PERIOD TIME 2.41920E+06  40320.      672.00      28.000     7.66598E-02
         TOTAL TIME 1.31328E+07 2.18880E+05  3648.0      152.00     0.41615    
1
1
                            STRESS PERIOD NO.    7, LENGTH =   31.00000    
                            -----------------------------------------------

                              NUMBER OF TIME STEPS =    31

                               MULTIPLIER FOR DELT =     1.000

                            INITIAL TIME STEP SIZE =   1.000000    
 USING INFILTRATION RATE FROM PREVIOUS STRESS 
 PERIOD.CURRENT PERIOD IS:            7

USING ET RATE FROM PREVIOUS STRESS PERIOD. CURRENT PERIOD IS:       7

 USING ET EXTINCTION DEPTH FROM PREVIOUS STRESS PERIOD. CURRENT PERIOD IS:       7

 USING EXTINCTION WATER CONTENT FROM PREVIOUS STRESS PERIOD. CURRENT PERIOD IS:       7

 PROCESSING AG STRESS PERIOD DATA

 READING AG STRESS PERIOD DATA

 READING IRRIGATION POND

 END PROCESSING AG STRESS PERIOD DATA OPTIONS
                                                   Max.-Head-Change                         Max.-Flux-Residual
  Residual-Control   Outer-Iter.   Inner-Iter.     Column Row Layer    Maximum-Head-Change  Column Row Layer    Maximum-Flux-Residual          L2-NORM 
          0                 1           7            68   48     1       0.2583327467E+01       8   39    1        -0.1590915079E+02      0.2477845103E+03
          0                 2           4            62   31     1       0.1861177743E+01      63   38    1         0.5863332776E+02      0.1132638941E+03
          0                 3           3            64   38     1       0.3226343815E-01      64   38    1         0.4549802114E+02      0.7049143244E+02
          0                 4           3            63   38     1       0.3330020732E-01      63   38    1         0.4704201889E+02      0.6743802660E+02
          0                 5           3            64   38     1       0.1463588777E-01      64   38    1         0.2073383197E+02      0.2594508304E+02
          0                 6           2            64   38     1       0.4105835971E-02      64   38    1         0.5835168424E+01      0.6873259263E+01
          0                 7           1            64   38     1       0.8789843910E-03      64   38    1         0.1251658684E+01      0.1587578406E+01

    ------------------------------------------------
       NWT REQUIRED            7 OUTER ITERATIONS 
       AND A TOTAL OF         23 INNER ITERATIONS.
    ------------------------------------------------

 OUTPUT CONTROL FOR STRESS PERIOD    7   TIME STEP    1
    PRINT BUDGET
    SAVE BUDGET
    SAVE HEAD FOR ALL LAYERS



 STREAM LISTING     PERIOD      7   STEP        1

 LAYER ROW COL. STREAM  RCH.   FLOW INTO    STREAM     FLOW OUT OF   OVRLND.    DIRECT     STREAM      STREAM      STREAM     STREAM  STREAMBED   FLOW TO   CHNG. UNSAT. 
                SEG.NO.  NO.   STRM. RCH.    LOSS       STRM. RCH.   RUNOFF     PRECIP       ET         HEAD        DEPTH      WIDTH  CONDCTNC.   WAT. TAB.

   1   18   62     1     1    0.0000E+00 -1.3801E+01   1.4671E+01  8.702E-01  0.000E+00  0.000E+00  2.07300E+03  5.865E-04  3.000E+00  1.909E+03  0.000E+00  0.000E+00
   1   19   63     1     2    1.4671E+01 -5.8107E+01   7.3648E+01  8.702E-01  0.000E+00  0.000E+00  2.06300E+03  1.731E-03  3.000E+00  1.909E+03  0.000E+00  0.000E+00
   1   20   64     1     3    7.3648E+01 -8.6224E+01   1.6074E+02  8.702E-01  0.000E+00  0.000E+00  2.05400E+03  3.403E-03  3.000E+00  1.630E+03  0.000E+00  0.000E+00
   1   21   64     1     4    1.6074E+02 -8.7863E+01   2.4948E+02  8.702E-01  0.000E+00  0.000E+00  2.05101E+03  5.860E-03  3.000E+00  1.630E+03  0.000E+00  0.000E+00
   1   22   65     1     5    2.4948E+02 -1.4504E+01   2.6485E+02  8.702E-01  0.000E+00  0.000E+00  2.04801E+03  5.717E-03  3.000E+00  9.546E+02  0.000E+00  0.000E+00
   1   20   66     2     1    0.0000E+00 -5.7723E+01   5.7723E+01  0.000E+00  0.000E+00  0.000E+00  2.05300E+03  1.895E-03  3.000E+00  1.909E+03  0.000E+00  0.000E+00
   1   21   65     2     2    5.7723E+01  5.5691E-01   5.7166E+01  0.000E+00  0.000E+00  0.000E+00  2.05100E+03  2.884E-03  3.000E+00  1.630E+03  0.000E+00  0.000E+00
   1   22   65     2     3    5.7166E+01 -1.2611E+01   6.9777E+01  0.000E+00  0.000E+00  0.000E+00  2.04800E+03  2.228E-03  3.000E+00  6.750E+02  0.000E+00  0.000E+00
   1   22   65     3     1    3.3463E+02 -1.0005E+01   3.4463E+02  0.000E+00  0.000E+00  0.000E+00  2.04801E+03  6.088E-03  3.000E+00  6.750E+02  0.000E+00  0.000E+00
   1   23   65     3     2    3.4463E+02 -9.8838E+01   4.4347E+02  0.000E+00  0.000E+00  0.000E+00  2.04501E+03  1.068E-02  3.000E+00  1.630E+03  0.000E+00  0.000E+00
   1   24   66     3     3    4.4347E+02 -2.7704E+01   4.7117E+02  0.000E+00  0.000E+00  0.000E+00  2.04541E+03  4.065E-01  3.000E+00  1.909E+03  0.000E+00  0.000E+00
   1   25   67     3     4    4.7117E+02  5.4905E+00   4.6568E+02  0.000E+00  0.000E+00  0.000E+00  2.04501E+03  1.241E-02  3.000E+00  1.909E+03  0.000E+00  0.000E+00
   1   26   68     3     5    4.6568E+02 -2.0987E+01   4.8667E+02  0.000E+00  0.000E+00  0.000E+00  2.04201E+03  1.097E-02  3.000E+00  1.630E+03  0.000E+00  0.000E+00
   1   27   68     3     6    4.8667E+02  7.7683E+01   4.0899E+02  0.000E+00  0.000E+00  0.000E+00  2.04101E+03  9.358E-03  3.000E+00  1.630E+03  0.000E+00  0.000E+00
   1   28   69     3     7    4.0899E+02  9.7776E+01   3.1121E+02  0.000E+00  0.000E+00  0.000E+00  2.03601E+03  6.669E-03  3.000E+00  1.630E+03  9.804E+01 -2.683E-01
   1   29   69     3     8    3.1121E+02  3.7239E+01   2.7397E+02  0.000E+00  0.000E+00  0.000E+00  2.02901E+03  5.432E-03  3.000E+00  1.350E+03  0.000E+00  0.000E+00
   1   30   69     3     9    2.7397E+02  9.0065E+00   2.6497E+02  0.000E+00  0.000E+00  0.000E+00  2.02301E+03  4.961E-03  3.000E+00  1.630E+03  0.000E+00  0.000E+00
   1   31   70     3    10    2.6497E+02 -1.1852E+02   3.8349E+02  0.000E+00  0.000E+00  0.000E+00  2.01101E+03  5.544E-03  3.000E+00  1.630E+03  0.000E+00  0.000E+00
   1   32   70     3    11    3.8349E+02 -2.1343E+02   5.9692E+02  0.000E+00  0.000E+00  0.000E+00  2.00501E+03  8.566E-03  3.000E+00  1.350E+03  0.000E+00  0.000E+00
   1   33   70     3    12    5.9692E+02  1.3095E+01   5.8383E+02  0.000E+00  0.000E+00  0.000E+00  2.00301E+03  7.817E-03  3.000E+00  1.630E+03  0.000E+00  0.000E+00
   1   34   69     3    13    5.8383E+02 -3.5182E+01   6.1901E+02  0.000E+00  0.000E+00  0.000E+00  1.98601E+03  6.892E-03  3.000E+00  1.630E+03  0.000E+00  0.000E+00
   1   35   69     3    14    6.1901E+02 -4.8657E+01   6.6767E+02  0.000E+00  0.000E+00  0.000E+00  1.97301E+03  7.779E-03  3.000E+00  1.350E+03  0.000E+00  0.000E+00
   1   36   69     3    15    6.6767E+02 -2.2480E+00   6.6991E+02  0.000E+00  0.000E+00  0.000E+00  1.96701E+03  8.726E-03  3.000E+00  1.350E+03  0.000E+00  0.000E+00
   1   37   69     3    16    6.6991E+02  6.9309E+00   6.6298E+02  0.000E+00  0.000E+00  0.000E+00  1.95901E+03  8.707E-03  3.000E+00  1.350E+03  0.000E+00  0.000E+00
   1   38   69     3    17    6.6298E+02  8.4255E+00   6.5456E+02  0.000E+00  0.000E+00  0.000E+00  1.95301E+03  9.355E-03  3.000E+00  1.630E+03  0.000E+00  0.000E+00
   1   39   70     3    18    6.5456E+02 -9.2795E+00   6.6384E+02  0.000E+00  0.000E+00  0.000E+00  1.94601E+03  8.381E-03  3.000E+00  9.546E+02  0.000E+00  0.000E+00
   1   25   49     4     1    0.0000E+00 -1.7475E+02   1.7475E+02  0.000E+00  0.000E+00  0.000E+00  2.03500E+03  2.529E-03  3.000E+00  1.909E+03  0.000E+00  0.000E+00
   1   26   50     4     2    1.7475E+02 -1.0599E+02   2.8074E+02  0.000E+00  0.000E+00  0.000E+00  2.02600E+03  4.876E-03  3.000E+00  1.909E+03  0.000E+00  0.000E+00
   1   27   51     4     3    2.8074E+02 -8.8162E+01   3.6890E+02  0.000E+00  0.000E+00  0.000E+00  2.01901E+03  6.272E-03  3.000E+00  1.630E+03  0.000E+00  0.000E+00
   1   28   51     4     4    3.6890E+02 -9.5488E+01   4.6439E+02  0.000E+00  0.000E+00  0.000E+00  2.01401E+03  7.692E-03  3.000E+00  1.630E+03  0.000E+00  0.000E+00
   1   29   52     4     5    4.6439E+02 -5.9756E+01   5.2414E+02  0.000E+00  0.000E+00  0.000E+00  2.00901E+03  8.522E-03  3.000E+00  1.630E+03  0.000E+00  0.000E+00
   1   30   52     4     6    5.2414E+02 -2.6410E+01   5.5055E+02  0.000E+00  0.000E+00  0.000E+00  2.00401E+03  8.468E-03  3.000E+00  1.350E+03  0.000E+00  0.000E+00
   1   31   52     4     7    5.5055E+02 -3.3260E+01   5.8381E+02  0.000E+00  0.000E+00  0.000E+00  1.99901E+03  9.735E-03  3.000E+00  1.350E+03  0.000E+00  0.000E+00
   1   32   52     4     8    5.8381E+02 -1.0341E+01   5.9415E+02  0.000E+00  0.000E+00  0.000E+00  1.99701E+03  1.012E-02  3.000E+00  1.630E+03  0.000E+00  0.000E+00
   1   33   53     4     9    5.9415E+02 -2.0838E+00   5.9624E+02  0.000E+00  0.000E+00  0.000E+00  1.99101E+03  9.991E-03  3.000E+00  1.909E+03  0.000E+00  0.000E+00
   1   34   54     4    10    5.9624E+02  2.7858E+01   5.6838E+02  0.000E+00  0.000E+00  0.000E+00  1.98701E+03  1.018E-02  3.000E+00  1.909E+03  0.000E+00  0.000E+00
   1   35   55     4    11    5.6838E+02  3.3556E+01   5.3482E+02  0.000E+00  0.000E+00  0.000E+00  1.98201E+03  8.846E-03  3.000E+00  1.630E+03  0.000E+00  0.000E+00
   1   36   55     4    12    5.3482E+02 -6.3023E+01   5.9785E+02  0.000E+00  0.000E+00  0.000E+00  1.97601E+03  7.900E-03  3.000E+00  6.750E+02  0.000E+00  0.000E+00
   1   35   37     5     1    5.2782E+03 -6.5770E+01   5.3439E+03  0.000E+00  0.000E+00  0.000E+00  2.05403E+03  2.620E-02  3.000E+00  9.546E+02  0.000E+00  0.000E+00
   1   34   38     5     2    5.3439E+03 -1.3216E+02   5.4761E+03  0.000E+00  0.000E+00  0.000E+00  2.04603E+03  3.262E-02  3.000E+00  1.909E+03  0.000E+00  0.000E+00
   1   33   39     5     3    5.4761E+03 -2.4977E+02   5.7259E+03  0.000E+00  0.000E+00  0.000E+00  2.03804E+03  3.958E-02  3.000E+00  1.909E+03  0.000E+00  0.000E+00
   1   32   40     5     4    5.7259E+03  1.0190E+02   5.6240E+03  0.000E+00  0.000E+00  0.000E+00  2.03704E+03  3.941E-02  3.000E+00  1.630E+03  0.000E+00  0.000E+00
   1   32   41     5     5    5.6240E+03 -1.4685E+02   5.7708E+03  0.000E+00  0.000E+00  0.000E+00  2.03003E+03  3.306E-02  3.000E+00  1.350E+03  0.000E+00  0.000E+00
   1   32   42     5     6    5.7708E+03 -1.8102E+02   5.9518E+03  0.000E+00  0.000E+00  0.000E+00  2.02504E+03  3.953E-02  3.000E+00  1.350E+03  0.000E+00  0.000E+00
   1   32   43     5     7    5.9518E+03 -7.0067E+01   6.0219E+03  0.000E+00  0.000E+00  0.000E+00  2.02304E+03  4.436E-02  3.000E+00  1.630E+03  0.000E+00  0.000E+00
   1   33   44     5     8    6.0219E+03 -1.5888E+02   6.1808E+03  0.000E+00  0.000E+00  0.000E+00  2.01904E+03  4.493E-02  3.000E+00  1.909E+03  0.000E+00  0.000E+00
   1   34   45     5     9    6.1808E+03 -3.5317E+01   6.2161E+03  0.000E+00  0.000E+00  0.000E+00  2.01604E+03  4.155E-02  3.000E+00  1.630E+03  0.000E+00  0.000E+00
   1   34   46     5    10    6.2161E+03 -1.1361E+02   6.3297E+03  0.000E+00  0.000E+00  0.000E+00  2.01104E+03  3.818E-02  3.000E+00  1.350E+03  0.000E+00  0.000E+00
   1   34   47     5    11    6.3297E+03  4.3791E+00   6.3253E+03  0.000E+00  0.000E+00  0.000E+00  2.00703E+03  3.020E-02  3.000E+00  6.750E+02  0.000E+00  0.000E+00
   1   34   47     6     1    6.3473E+03  2.8686E+00   6.3445E+03  0.000E+00  0.000E+00  0.000E+00  2.00703E+03  2.797E-02  3.000E+00  6.750E+02  0.000E+00  0.000E+00
   1   34   48     6     2    6.3445E+03 -1.4064E+02   6.4851E+03  0.000E+00  0.000E+00  0.000E+00  2.00104E+03  3.667E-02  3.000E+00  1.630E+03  0.000E+00  0.000E+00
   1   35   49     6     3    6.4851E+03 -2.8224E+02   6.7673E+03  0.000E+00  0.000E+00  0.000E+00  1.99404E+03  3.931E-02  3.000E+00  1.630E+03  0.000E+00  0.000E+00
   1   35   50     6     4    6.7673E+03 -2.1383E+02   6.9812E+03  0.000E+00  0.000E+00  0.000E+00  1.99005E+03  4.811E-02  3.000E+00  1.350E+03  0.000E+00  0.000E+00
   1   35   51     6     5    6.9812E+03  1.8101E+01   6.9631E+03  0.000E+00  0.000E+00  0.000E+00  1.98905E+03  4.861E-02  3.000E+00  1.630E+03  0.000E+00  0.000E+00
   1   36   52     6     6    6.9631E+03 -1.4323E+02   7.1063E+03  0.000E+00  0.000E+00  0.000E+00  1.98404E+03  4.327E-02  3.000E+00  1.630E+03  0.000E+00  0.000E+00
   1   36   53     6     7    7.1063E+03 -2.4354E+02   7.3498E+03  0.000E+00  0.000E+00  0.000E+00  1.98006E+03  5.610E-02  3.000E+00  1.630E+03  0.000E+00  0.000E+00
   1   37   54     6     8    7.3498E+03 -5.5048E+01   7.4049E+03  0.000E+00  0.000E+00  0.000E+00  1.98006E+03  5.955E-02  3.000E+00  1.909E+03  0.000E+00  0.000E+00
   1   36   55     6     9    7.4049E+03 -5.3293E+01   7.4582E+03  0.000E+00  0.000E+00  0.000E+00  1.97605E+03  4.544E-02  3.000E+00  9.546E+02  0.000E+00  0.000E+00
   1   36   34     7     1    2.2310E+03 -5.3824E+01   2.2848E+03  0.000E+00  0.000E+00  0.000E+00  2.07701E+03  1.426E-02  3.000E+00  9.546E+02  0.000E+00  0.000E+00
   1   35   35     7     2    2.2848E+03 -1.1142E+02   2.3963E+03  0.000E+00  0.000E+00  0.000E+00  2.06702E+03  1.918E-02  3.000E+00  1.630E+03  0.000E+00  0.000E+00
   1   35   36     7     3    2.3963E+03  1.5027E+01   2.3812E+03  0.000E+00  0.000E+00  0.000E+00  2.06202E+03  1.916E-02  3.000E+00  1.350E+03  0.000E+00  0.000E+00
   1   35   37     7     4    2.3812E+03 -5.4275E+01   2.4355E+03  0.000E+00  0.000E+00  0.000E+00  2.05401E+03  1.469E-02  3.000E+00  6.750E+02  0.000E+00  0.000E+00
   1   52   49     8     1    0.0000E+00 -2.1571E+02   2.1571E+02  0.000E+00  0.000E+00  0.000E+00  2.12100E+03  2.957E-03  3.000E+00  1.909E+03  0.000E+00  0.000E+00
   1   51   48     8     2    2.1571E+02 -2.0695E+02   4.2265E+02  0.000E+00  0.000E+00  0.000E+00  2.11701E+03  9.049E-03  3.000E+00  1.909E+03  0.000E+00  0.000E+00
   1   50   47     8     3    4.2265E+02  9.7776E+01   3.2488E+02  0.000E+00  0.000E+00  0.000E+00  2.11701E+03  7.706E-03  3.000E+00  1.630E+03  9.776E+01  1.372E-02
   1   49   47     8     4    3.2488E+02 -2.1877E+02   5.4365E+02  0.000E+00  0.000E+00  0.000E+00  2.10901E+03  7.886E-03  3.000E+00  1.630E+03  0.000E+00  0.000E+00
   1   48   46     8     5    5.4365E+02  4.6478E+00   5.3900E+02  0.000E+00  0.000E+00  0.000E+00  2.10701E+03  1.185E-02  3.000E+00  1.630E+03  0.000E+00  0.000E+00
   1   47   46     8     6    5.3900E+02  8.6185E+01   4.5281E+02  0.000E+00  0.000E+00  0.000E+00  2.10501E+03  1.062E-02  3.000E+00  1.350E+03  0.000E+00  0.000E+00
   1   46   46     8     7    4.5281E+02  8.1000E+01   3.7181E+02  0.000E+00  0.000E+00  0.000E+00  2.10301E+03  8.421E-03  3.000E+00  1.350E+03  8.109E+01 -9.447E-02
   1   45   46     8     8    3.7181E+02  8.1000E+01   2.9081E+02  0.000E+00  0.000E+00  0.000E+00  2.09901E+03  5.999E-03  3.000E+00  1.350E+03  8.120E+01 -2.028E-01
   1   44   46     8     9    2.9081E+02  8.1000E+01   2.0981E+02  0.000E+00  0.000E+00  0.000E+00  2.09100E+03  4.417E-03  3.000E+00  1.350E+03  8.125E+01 -2.518E-01
   1   43   46     8    10    2.0981E+02  1.2652E+02   8.3291E+01  0.000E+00  0.000E+00  0.000E+00  2.08000E+03  3.204E-03  3.000E+00  1.350E+03  0.000E+00  0.000E+00
   1   42   46     8    11    8.3291E+01  8.3291E+01   0.0000E+00  0.000E+00  0.000E+00  0.000E+00  2.07200E+03  5.350E-04  3.000E+00  1.630E+03  1.459E-02  1.456E-02
   1   41   45     8    12    0.0000E+00 -9.6772E+01   9.6772E+01  0.000E+00  0.000E+00  0.000E+00  2.06000E+03  1.772E-03  3.000E+00  1.630E+03  0.000E+00  0.000E+00
   1   40   45     8    13    9.6772E+01  8.1000E+01   1.5772E+01  0.000E+00  0.000E+00  0.000E+00  2.05400E+03  1.981E-03  3.000E+00  1.350E+03  8.120E+01 -2.030E-01
   1   39   45     8    14    1.5772E+01  1.5772E+01   0.0000E+00  0.000E+00  0.000E+00  0.000E+00  2.04600E+03  1.892E-04  3.000E+00  1.350E+03  9.178E+00  6.594E+00
   1   38   45     8    15    0.0000E+00  0.0000E+00   0.0000E+00  0.000E+00  0.000E+00  0.000E+00  2.03500E+03  0.000E+00  3.000E+00  1.350E+03  0.000E+00  0.000E+00
   1   37   45     8    16    0.0000E+00  0.0000E+00   0.0000E+00  0.000E+00  0.000E+00  0.000E+00  2.02700E+03  0.000E+00  3.000E+00  1.630E+03  0.000E+00  0.000E+00
   1   36   46     8    17    0.0000E+00  0.0000E+00   0.0000E+00  0.000E+00  0.000E+00  0.000E+00  2.02100E+03  0.000E+00  3.000E+00  1.630E+03  0.000E+00  0.000E+00
   1   35   46     8    18    0.0000E+00  0.0000E+00   0.0000E+00  0.000E+00  0.000E+00  0.000E+00  2.01400E+03  0.000E+00  3.000E+00  1.630E+03  0.000E+00  0.000E+00
   1   34   47     8    19    0.0000E+00 -2.1981E+01   2.1981E+01  0.000E+00  0.000E+00  0.000E+00  2.00700E+03  6.904E-04  3.000E+00  9.546E+02  0.000E+00  0.000E+00
   1   37   26     9     1    0.0000E+00  0.0000E+00   0.0000E+00  0.000E+00  0.000E+00  0.000E+00  2.14700E+03  0.000E+00  3.000E+00  1.350E+03  0.000E+00  0.000E+00
   1   37   27     9     2    0.0000E+00 -6.9179E+01   6.9179E+01  0.000E+00  0.000E+00  0.000E+00  2.13400E+03  1.290E-03  3.000E+00  1.350E+03  0.000E+00  0.000E+00
   1   37   28     9     3    6.9179E+01 -1.4315E+02   2.1232E+02  0.000E+00  0.000E+00  0.000E+00  2.12500E+03  3.308E-03  3.000E+00  1.630E+03  0.000E+00  0.000E+00
   1   36   29     9     4    2.1232E+02 -3.5417E+00   2.1587E+02  0.000E+00  0.000E+00  0.000E+00  2.11500E+03  4.325E-03  3.000E+00  1.630E+03  0.000E+00  0.000E+00
   1   36   30     9     5    2.1587E+02 -9.3901E+01   3.0977E+02  0.000E+00  0.000E+00  0.000E+00  2.10700E+03  4.702E-03  3.000E+00  1.350E+03  0.000E+00  0.000E+00
   1   36   31     9     6    3.0977E+02 -2.0933E+02   5.1910E+02  0.000E+00  0.000E+00  0.000E+00  2.09801E+03  6.293E-03  3.000E+00  1.350E+03  0.000E+00  0.000E+00
   1   36   32     9     7    5.1910E+02 -1.5568E+02   6.7477E+02  0.000E+00  0.000E+00  0.000E+00  2.09101E+03  8.154E-03  3.000E+00  1.350E+03  0.000E+00  0.000E+00
   1   36   33     9     8    6.7477E+02 -1.4245E+02   8.1722E+02  0.000E+00  0.000E+00  0.000E+00  2.08401E+03  9.321E-03  3.000E+00  1.350E+03  0.000E+00  0.000E+00
   1   36   34     9     9    8.1722E+02 -4.2510E+01   8.5973E+02  0.000E+00  0.000E+00  0.000E+00  2.07701E+03  7.661E-03  3.000E+00  6.750E+02  0.000E+00  0.000E+00
   1   58   37    10     1    0.0000E+00 -1.3699E+02   1.3699E+02  0.000E+00  0.000E+00  0.000E+00  2.15000E+03  3.239E-03  3.000E+00  1.350E+03  0.000E+00  0.000E+00
   1   57   37    10     2    1.3699E+02 -9.5108E+01   2.3210E+02  0.000E+00  0.000E+00  0.000E+00  2.14701E+03  5.252E-03  3.000E+00  1.630E+03  0.000E+00  0.000E+00
   1   56   38    10     3    2.3210E+02 -1.7769E+01   2.4987E+02  0.000E+00  0.000E+00  0.000E+00  2.14301E+03  5.717E-03  3.000E+00  1.630E+03  0.000E+00  0.000E+00
   1   55   38    10     4    2.4987E+02 -1.7499E+02   4.2486E+02  0.000E+00  0.000E+00  0.000E+00  2.13801E+03  6.849E-03  3.000E+00  1.350E+03  0.000E+00  0.000E+00
   1   54   38    10     5    4.2486E+02 -1.1681E+02   5.4168E+02  0.000E+00  0.000E+00  0.000E+00  2.13501E+03  9.262E-03  3.000E+00  1.350E+03  0.000E+00  0.000E+00
   1   53   38    10     6    5.4168E+02 -1.1351E+02   6.5518E+02  0.000E+00  0.000E+00  0.000E+00  2.13201E+03  1.053E-02  3.000E+00  1.350E+03  0.000E+00  0.000E+00
   1   52   38    10     7    6.5518E+02 -1.7437E+02   8.2955E+02  0.000E+00  0.000E+00  0.000E+00  2.12901E+03  1.432E-02  3.000E+00  1.630E+03  0.000E+00  0.000E+00
   1   51   39    10     8    8.2955E+02  1.5931E+00   8.2795E+02  0.000E+00  0.000E+00  0.000E+00  2.12802E+03  1.530E-02  3.000E+00  1.630E+03  0.000E+00  0.000E+00
   1   50   39    10     9    8.2795E+02 -8.4585E+01   9.1254E+02  0.000E+00  0.000E+00  0.000E+00  2.12501E+03  1.332E-02  3.000E+00  1.630E+03  0.000E+00  0.000E+00
   1   49   38    10    10    9.1254E+02 -1.5306E+02   1.0656E+03  0.000E+00  0.000E+00  0.000E+00  2.12102E+03  1.508E-02  3.000E+00  1.909E+03  0.000E+00  0.000E+00
   1   48   37    10    11    1.0656E+03  2.0353E+01   1.0452E+03  0.000E+00  0.000E+00  0.000E+00  2.11801E+03  1.334E-02  3.000E+00  1.909E+03  0.000E+00  0.000E+00
   1   47   36    10    12    1.0452E+03 -3.3859E+02   1.3838E+03  0.000E+00  0.000E+00  0.000E+00  2.10901E+03  1.384E-02  3.000E+00  1.630E+03  0.000E+00  0.000E+00
   1   46   36    10    13    1.3838E+03 -1.3396E+02   1.5178E+03  0.000E+00  0.000E+00  0.000E+00  2.10602E+03  1.710E-02  3.000E+00  1.350E+03  0.000E+00  0.000E+00
   1   45   36    10    14    1.5178E+03 -1.6923E+02   1.6870E+03  0.000E+00  0.000E+00  0.000E+00  2.10202E+03  1.815E-02  3.000E+00  1.350E+03  0.000E+00  0.000E+00
   1   44   36    10    15    1.6870E+03 -9.6437E+01   1.7835E+03  0.000E+00  0.000E+00  0.000E+00  2.09902E+03  1.994E-02  3.000E+00  1.350E+03  0.000E+00  0.000E+00
   1   43   36    10    16    1.7835E+03 -1.2621E+00   1.7847E+03  0.000E+00  0.000E+00  0.000E+00  2.09602E+03  1.900E-02  3.000E+00  1.630E+03  0.000E+00  0.000E+00
   1   42   37    10    17    1.7847E+03  9.7776E+01   1.6869E+03  0.000E+00  0.000E+00  0.000E+00  2.09002E+03  1.573E-02  3.000E+00  1.630E+03  9.785E+01 -7.034E-02
   1   41   37    10    18    1.6869E+03 -2.3136E+02   1.9183E+03  0.000E+00  0.000E+00  0.000E+00  2.08002E+03  1.520E-02  3.000E+00  1.350E+03  0.000E+00  0.000E+00
   1   40   37    10    19    1.9183E+03 -3.3375E+02   2.2520E+03  0.000E+00  0.000E+00  0.000E+00  2.07402E+03  2.086E-02  3.000E+00  1.630E+03  0.000E+00  0.000E+00
   1   39   38    10    20    2.2520E+03 -3.4308E+01   2.2864E+03  0.000E+00  0.000E+00  0.000E+00  2.07102E+03  2.367E-02  3.000E+00  1.630E+03  0.000E+00  0.000E+00
   1   38   38    10    21    2.2864E+03  1.2319E+01   2.2740E+03  0.000E+00  0.000E+00  0.000E+00  2.06702E+03  2.133E-02  3.000E+00  1.630E+03  0.000E+00  0.000E+00
   1   37   37    10    22    2.2740E+03 -3.0360E+02   2.5776E+03  0.000E+00  0.000E+00  0.000E+00  2.06102E+03  2.213E-02  3.000E+00  1.630E+03  0.000E+00  0.000E+00
   1   36   37    10    23    2.5776E+03 -2.1302E+02   2.7907E+03  0.000E+00  0.000E+00  0.000E+00  2.05702E+03  2.474E-02  3.000E+00  1.350E+03  0.000E+00  0.000E+00
   1   35   37    10    24    2.7907E+03 -5.2002E+01   2.8427E+03  0.000E+00  0.000E+00  0.000E+00  2.05402E+03  1.806E-02  3.000E+00  6.750E+02  0.000E+00  0.000E+00
   1   36   55    11     1    8.0560E+03 -4.2086E+01   8.0981E+03  0.000E+00  0.000E+00  0.000E+00  1.97604E+03  3.892E-02  3.000E+00  6.750E+02  0.000E+00  0.000E+00
   1   36   56    11     2    8.0981E+03 -6.8241E+01   8.1664E+03  0.000E+00  0.000E+00  0.000E+00  1.97507E+03  6.564E-02  3.000E+00  1.630E+03  0.000E+00  0.000E+00
   1   37   57    11     3    8.1664E+03 -1.4739E+02   8.3137E+03  0.000E+00  0.000E+00  0.000E+00  1.97307E+03  6.616E-02  3.000E+00  1.630E+03  0.000E+00  0.000E+00
   1   37   58    11     4    8.3137E+03 -1.0404E+02   8.4178E+03  0.000E+00  0.000E+00  0.000E+00  1.97209E+03  8.773E-02  3.000E+00  1.350E+03  0.000E+00  0.000E+00
   1   37   59    11     5    8.4178E+03 -7.1379E+00   8.4249E+03  0.000E+00  0.000E+00  0.000E+00  1.97207E+03  7.154E-02  3.000E+00  1.350E+03  0.000E+00  0.000E+00
   1   37   60    11     6    8.4249E+03 -2.8817E+01   8.4537E+03  0.000E+00  0.000E+00  0.000E+00  1.97006E+03  5.758E-02  3.000E+00  1.630E+03  0.000E+00  0.000E+00
   1   38   61    11     7    8.4537E+03 -1.0087E+02   8.5546E+03  0.000E+00  0.000E+00  0.000E+00  1.96705E+03  5.229E-02  3.000E+00  1.630E+03  0.000E+00  0.000E+00
   1   38   62    11     8    8.5546E+03 -9.8853E+01   8.6535E+03  0.000E+00  0.000E+00  0.000E+00  1.96305E+03  4.781E-02  3.000E+00  6.750E+02  0.000E+00  0.000E+00
   1   51   11    12     1    0.0000E+00 -4.9098E+02   4.9098E+02  0.000E+00  0.000E+00  0.000E+00  2.38700E+03  4.637E-03  3.000E+00  1.909E+03  0.000E+00  0.000E+00
   1   50   12    12     2    4.9098E+02 -6.1788E+01   5.5277E+02  0.000E+00  0.000E+00  0.000E+00  2.37501E+03  6.950E-03  3.000E+00  1.630E+03  0.000E+00  0.000E+00
   1   49   12    12     3    5.5277E+02 -3.8763E+02   9.4040E+02  0.000E+00  0.000E+00  0.000E+00  2.36501E+03  9.003E-03  3.000E+00  1.630E+03  0.000E+00  0.000E+00
   1   48   13    12     4    9.4040E+02 -1.8567E+02   1.1261E+03  0.000E+00  0.000E+00  0.000E+00  2.35601E+03  1.174E-02  3.000E+00  1.630E+03  0.000E+00  0.000E+00
   1   48   14    12     5    1.1261E+03 -1.6524E+02   1.2913E+03  0.000E+00  0.000E+00  0.000E+00  2.35001E+03  1.266E-02  3.000E+00  1.630E+03  0.000E+00  0.000E+00
   1   47   15    12     6    1.2913E+03 -1.7160E+02   1.4629E+03  0.000E+00  0.000E+00  0.000E+00  2.34001E+03  1.395E-02  3.000E+00  1.630E+03  0.000E+00  0.000E+00
   1   47   16    12     7    1.4629E+03 -1.2776E+02   1.5907E+03  0.000E+00  0.000E+00  0.000E+00  2.33502E+03  1.629E-02  3.000E+00  1.630E+03  0.000E+00  0.000E+00
   1   46   17    12     8    1.5907E+03  7.9504E+01   1.5112E+03  0.000E+00  0.000E+00  0.000E+00  2.32902E+03  1.530E-02  3.000E+00  1.630E+03  0.000E+00  0.000E+00
   1   46   18    12     9    1.5112E+03  1.7167E+02   1.3395E+03  0.000E+00  0.000E+00  0.000E+00  2.32101E+03  1.184E-02  3.000E+00  1.350E+03  0.000E+00  0.000E+00
   1   46   19    12    10    1.3395E+03 -1.6192E+02   1.5014E+03  0.000E+00  0.000E+00  0.000E+00  2.30601E+03  1.344E-02  3.000E+00  1.350E+03  0.000E+00  0.000E+00
   1   46   20    12    11    1.5014E+03  9.7776E+01   1.4036E+03  0.000E+00  0.000E+00  0.000E+00  2.30601E+03  1.148E-02  3.000E+00  1.630E+03  9.776E+01  1.368E-02
   1   45   21    12    12    1.4036E+03 -5.2647E+01   1.4563E+03  0.000E+00  0.000E+00  0.000E+00  2.27401E+03  1.008E-02  3.000E+00  1.909E+03  0.000E+00  0.000E+00
   1   44   22    12    13    1.4563E+03 -1.4019E+02   1.5965E+03  0.000E+00  0.000E+00  0.000E+00  2.25001E+03  1.135E-02  3.000E+00  1.909E+03  0.000E+00  0.000E+00
   1   43   23    12    14    1.5965E+03  1.5490E+02   1.4416E+03  0.000E+00  0.000E+00  0.000E+00  2.23101E+03  1.140E-02  3.000E+00  1.909E+03  0.000E+00  0.000E+00
   1   42   24    12    15    1.4416E+03 -8.1980E+01   1.5236E+03  0.000E+00  0.000E+00  0.000E+00  2.20801E+03  1.173E-02  3.000E+00  1.630E+03  0.000E+00  0.000E+00
   1   42   25    12    16    1.5236E+03 -1.9640E+01   1.5432E+03  0.000E+00  0.000E+00  0.000E+00  2.20001E+03  1.290E-02  3.000E+00  1.350E+03  0.000E+00  0.000E+00
   1   42   26    12    17    1.5432E+03  1.2647E+02   1.4167E+03  0.000E+00  0.000E+00  0.000E+00  2.18801E+03  1.119E-02  3.000E+00  1.350E+03  0.000E+00  0.000E+00
   1   42   27    12    18    1.4167E+03 -2.6024E+02   1.6770E+03  0.000E+00  0.000E+00  0.000E+00  2.17001E+03  1.160E-02  3.000E+00  1.350E+03  0.000E+00  0.000E+00
   1   42   28    12    19    1.6770E+03 -8.7691E+01   1.7647E+03  0.000E+00  0.000E+00  0.000E+00  2.15901E+03  1.323E-02  3.000E+00  1.630E+03  0.000E+00  0.000E+00
   1   41   29    12    20    1.7647E+03  1.6153E+02   1.6031E+03  0.000E+00  0.000E+00  0.000E+00  2.14201E+03  1.315E-02  3.000E+00  1.909E+03  0.000E+00  0.000E+00
   1   40   30    12    21    1.6031E+03  6.1114E+01   1.5420E+03  0.000E+00  0.000E+00  0.000E+00  2.12701E+03  1.329E-02  3.000E+00  1.909E+03  0.000E+00  0.000E+00
   1   39   31    12    22    1.5420E+03  1.1455E+02   1.4275E+03  0.000E+00  0.000E+00  0.000E+00  2.11501E+03  1.330E-02  3.000E+00  1.909E+03  1.148E+02 -2.427E-01
   1   38   32    12    23    1.4275E+03  1.1455E+02   1.3129E+03  0.000E+00  0.000E+00  0.000E+00  2.10301E+03  1.237E-02  3.000E+00  1.909E+03  1.148E+02 -2.358E-01
   1   37   33    12    24    1.3129E+03 -8.9830E-01   1.3138E+03  0.000E+00  0.000E+00  0.000E+00  2.08901E+03  1.206E-02  3.000E+00  1.909E+03  0.000E+00  0.000E+00
   1   36   34    12    25    1.3138E+03 -5.7470E+01   1.3713E+03  0.000E+00  0.000E+00  0.000E+00  2.07701E+03  1.044E-02  3.000E+00  9.546E+02  0.000E+00  0.000E+00
   1   38   62    13     1    8.8364E+03 -1.0612E+02   8.9425E+03  0.000E+00  0.000E+00  0.000E+00  1.96304E+03  3.704E-02  3.000E+00  6.750E+02  0.000E+00  0.000E+00
   1   38   63    13     2    8.9425E+03 -1.3687E+01   8.9562E+03  0.000E+00  0.000E+00  0.000E+00  1.96542E+03  2.422E+00  3.000E+00  1.350E+03  0.000E+00  0.000E+00
   1   38   64    13     3    8.9562E+03  1.3692E+01   8.9425E+03  0.000E+00  0.000E+00  0.000E+00  1.96542E+03  2.422E+00  3.000E+00  1.350E+03  0.000E+00  0.000E+00
   1   38   65    13     4    8.9425E+03 -4.6598E+01   8.9891E+03  0.000E+00  0.000E+00  0.000E+00  1.96307E+03  6.577E-02  3.000E+00  1.350E+03  0.000E+00  0.000E+00
   1   38   66    13     5    8.9891E+03 -8.1208E+01   9.0703E+03  0.000E+00  0.000E+00  0.000E+00  1.96006E+03  5.666E-02  3.000E+00  1.350E+03  0.000E+00  0.000E+00
   1   38   67    13     6    9.0703E+03 -5.7180E+01   9.1275E+03  0.000E+00  0.000E+00  0.000E+00  1.95805E+03  5.445E-02  3.000E+00  1.630E+03  0.000E+00  0.000E+00
   1   39   68    13     7    9.1275E+03 -2.8787E+01   9.1563E+03  0.000E+00  0.000E+00  0.000E+00  1.95305E+03  4.906E-02  3.000E+00  1.630E+03  0.000E+00  0.000E+00
   1   39   69    13     8    9.1563E+03 -8.4957E+01   9.2412E+03  0.000E+00  0.000E+00  0.000E+00  1.94805E+03  5.179E-02  3.000E+00  1.350E+03  0.000E+00  0.000E+00
   1   39   70    13     9    9.2412E+03  1.7588E+01   9.2236E+03  0.000E+00  0.000E+00  0.000E+00  1.94604E+03  4.416E-02  3.000E+00  6.750E+02  0.000E+00  0.000E+00
   1   46   61    14     1    0.0000E+00 -2.9678E+01   2.9678E+01  0.000E+00  0.000E+00  0.000E+00  2.01700E+03  8.911E-04  3.000E+00  1.350E+03  0.000E+00  0.000E+00
   1   45   61    14     2    2.9678E+01  2.9678E+01   0.0000E+00  0.000E+00  0.000E+00  0.000E+00  2.01000E+03  3.257E-04  3.000E+00  1.350E+03  0.000E+00  0.000E+00
   1   44   61    14     3    0.0000E+00  0.0000E+00   0.0000E+00  0.000E+00  0.000E+00  0.000E+00  2.00600E+03  0.000E+00  3.000E+00  1.350E+03  0.000E+00  0.000E+00
   1   43   61    14     4    0.0000E+00  0.0000E+00   0.0000E+00  0.000E+00  0.000E+00  0.000E+00  1.99900E+03  0.000E+00  3.000E+00  1.350E+03  0.000E+00  0.000E+00
   1   42   61    14     5    0.0000E+00  0.0000E+00   0.0000E+00  0.000E+00  0.000E+00  0.000E+00  1.99300E+03  0.000E+00  3.000E+00  1.350E+03  0.000E+00  0.000E+00
   1   41   61    14     6    0.0000E+00  0.0000E+00   0.0000E+00  0.000E+00  0.000E+00  0.000E+00  1.98500E+03  0.000E+00  3.000E+00  1.350E+03  0.000E+00  0.000E+00
   1   40   61    14     7    0.0000E+00 -3.6483E+01   3.6483E+01  0.000E+00  0.000E+00  0.000E+00  1.97800E+03  1.056E-03  3.000E+00  1.350E+03  0.000E+00  0.000E+00
   1   39   61    14     8    3.6483E+01  3.6483E+01   0.0000E+00  0.000E+00  0.000E+00  0.000E+00  1.97300E+03  3.554E-04  3.000E+00  1.630E+03  0.000E+00  0.000E+00
   1   38   62    14     9    0.0000E+00 -1.8292E+02   1.8292E+02  0.000E+00  0.000E+00  0.000E+00  1.96300E+03  2.641E-03  3.000E+00  9.546E+02  0.000E+00  0.000E+00
   1   39   70    15     1    9.8875E+03  1.3664E+01   9.8738E+03  0.000E+00  0.000E+00  0.000E+00  1.94604E+03  3.835E-02  3.000E+00  6.750E+02  0.000E+00  0.000E+00
   1   39   71    15     2    9.8738E+03 -1.1542E+02   9.9892E+03  0.000E+00  0.000E+00  0.000E+00  1.94206E+03  6.348E-02  3.000E+00  1.630E+03  0.000E+00  0.000E+00
   1   40   72    15     3    9.9892E+03 -3.5413E+01   1.0025E+04  0.000E+00  0.000E+00  0.000E+00  1.94107E+03  6.818E-02  3.000E+00  1.630E+03  0.000E+00  0.000E+00
   1   40   73    15     4    1.0025E+04 -5.3791E+01   1.0078E+04  0.000E+00  0.000E+00  0.000E+00  1.93806E+03  6.042E-02  3.000E+00  1.350E+03  0.000E+00  0.000E+00
   1   40   74    15     5    1.0078E+04 -3.1030E+01   1.0109E+04  0.000E+00  0.000E+00  0.000E+00  1.93606E+03  6.477E-02  3.000E+00  1.350E+03  0.000E+00  0.000E+00
   1   40   75    15     6    1.0109E+04 -2.1504E+00   1.0112E+04  0.000E+00  0.000E+00  0.000E+00  1.93406E+03  5.741E-02  3.000E+00  6.750E+02  0.000E+00  0.000E+00
   1   40   75    16     1    1.1058E+04 -5.8149E+00   1.1064E+04  0.000E+00  0.000E+00  0.000E+00  1.93405E+03  5.198E-02  3.000E+00  6.750E+02  0.000E+00  0.000E+00
   1   40   76    16     2    1.1064E+04  0.0000E+00   1.1064E+04  0.000E+00  0.000E+00  0.000E+00  1.93307E+03  7.461E-02  3.000E+00  0.000E+00  0.000E+00  0.000E+00
   1   55   73    17     1    0.0000E+00 -7.7534E+00   7.7534E+00  0.000E+00  0.000E+00  0.000E+00  2.04100E+03  3.544E-04  3.000E+00  1.350E+03  0.000E+00  0.000E+00
   1   54   73    17     2    7.7534E+00  7.7534E+00   0.0000E+00  0.000E+00  0.000E+00  0.000E+00  2.02900E+03  1.152E-04  3.000E+00  1.350E+03  7.780E+00 -2.655E-02
   1   53   73    17     3    0.0000E+00  0.0000E+00   0.0000E+00  0.000E+00  0.000E+00  0.000E+00  2.01700E+03  0.000E+00  3.000E+00  1.350E+03  0.000E+00  0.000E+00
   1   52   73    17     4    0.0000E+00 -5.8781E+01   5.8781E+01  0.000E+00  0.000E+00  0.000E+00  2.01000E+03  1.296E-03  3.000E+00  1.630E+03  0.000E+00  0.000E+00
   1   51   72    17     5    5.8781E+01 -2.4785E+02   3.0663E+02  0.000E+00  0.000E+00  0.000E+00  1.99800E+03  4.000E-03  3.000E+00  1.630E+03  0.000E+00  0.000E+00
   1   50   72    17     6    3.0663E+02 -2.0900E+01   3.2753E+02  0.000E+00  0.000E+00  0.000E+00  1.99301E+03  5.842E-03  3.000E+00  1.350E+03  0.000E+00  0.000E+00
   1   49   72    17     7    3.2753E+02 -8.5615E+01   4.1315E+02  0.000E+00  0.000E+00  0.000E+00  1.98601E+03  6.123E-03  3.000E+00  1.350E+03  0.000E+00  0.000E+00
   1   48   72    17     8    4.1315E+02 -1.2926E+02   5.4241E+02  0.000E+00  0.000E+00  0.000E+00  1.97901E+03  7.134E-03  3.000E+00  1.350E+03  0.000E+00  0.000E+00
   1   47   72    17     9    5.4241E+02 -1.9386E+02   7.3627E+02  0.000E+00  0.000E+00  0.000E+00  1.97201E+03  8.688E-03  3.000E+00  1.350E+03  0.000E+00  0.000E+00
   1   46   72    17    10    7.3627E+02 -2.6485E+01   7.6276E+02  0.000E+00  0.000E+00  0.000E+00  1.96601E+03  9.789E-03  3.000E+00  1.350E+03  0.000E+00  0.000E+00
   1   45   72    17    11    7.6276E+02 -9.7770E+00   7.7253E+02  0.000E+00  0.000E+00  0.000E+00  1.96001E+03  1.003E-02  3.000E+00  1.630E+03  0.000E+00  0.000E+00
   1   44   73    17    12    7.7253E+02 -2.5032E+01   7.9757E+02  0.000E+00  0.000E+00  0.000E+00  1.95201E+03  1.040E-02  3.000E+00  1.630E+03  0.000E+00  0.000E+00
   1   43   73    17    13    7.9757E+02 -4.5132E+01   8.4270E+02  0.000E+00  0.000E+00  0.000E+00  1.94701E+03  1.167E-02  3.000E+00  1.350E+03  0.000E+00  0.000E+00
   1   42   73    17    14    8.4270E+02 -1.0102E+01   8.5280E+02  0.000E+00  0.000E+00  0.000E+00  1.94401E+03  1.216E-02  3.000E+00  1.630E+03  0.000E+00  0.000E+00
   1   41   74    17    15    8.5280E+02 -4.8117E+01   9.0092E+02  0.000E+00  0.000E+00  0.000E+00  1.93801E+03  1.261E-02  3.000E+00  1.909E+03  0.000E+00  0.000E+00
   1   40   75    17    16    9.0092E+02 -4.5430E+01   9.4635E+02  0.000E+00  0.000E+00  0.000E+00  1.93401E+03  1.300E-02  3.000E+00  9.546E+02  0.000E+00  0.000E+00
   1   37   55    18     1    0.0000E+00  0.0000E+00   0.0000E+00  0.000E+00  0.000E+00  0.000E+00  2.00700E+03  0.000E+00  3.000E+00  1.630E+03  0.000E+00  0.000E+00
   1   36   54    19     1    0.0000E+00  0.0000E+00   0.0000E+00  0.000E+00  0.000E+00  0.000E+00  2.00700E+03  0.000E+00  3.000E+00  1.630E+03  0.000E+00  0.000E+00



1
  VOLUMETRIC BUDGET FOR UNSATURATED ZONE BENEATH STREAMS AT END OF TIME STEP     1 STRESS PERIOD   7
  ------------------------------------------------------------------------------------------------

    CUMULATIVE VOLUMES             L**3    RATES FOR THIS TIME STEP         L**3/T
    ------------------                     ------------------------


          STREAM LOSS =       164121.9688            STREAM LOSS =          967.7307
    CHANGE IN STORAGE =           32.3821      CHANGE IN STORAGE =            5.0114
       RECHARGE TO GW =       164089.3750         RECHARGE TO GW =          962.7195

             TOTAL IN =       164121.9688               TOTAL IN =          967.7307

            TOTAL OUT =       164121.7500              TOTAL OUT =          967.7309

             IN - OUT =            0.2188               IN - OUT =       -1.8311E-04

  PERCENT DISCREPANCY =            0.00      PERCENT DISCREPANCY =            -0.00



 ***WARNING***NUZTOP IS 3 AND ALL LAYERS  IN ROW           39  AND COLUMN           76  ARE INACTIVE.
 UNSATURATED FLOW WILL NOT BE ADDED TO ANY LAYER-- SOME WATER MAY FLOW PAST LOWEST LAYER
 ***WARNING***NUZTOP IS 3 AND ALL LAYERS  IN ROW           40  AND COLUMN           76  ARE INACTIVE.
 UNSATURATED FLOW WILL NOT BE ADDED TO ANY LAYER-- SOME WATER MAY FLOW PAST LOWEST LAYER


UNSATURATED ZONE PACKAGE VOLUMETRIC BUDGET FOR  TIME STEP     1 STRESS PERIOD    7
  ------------------------------------------------------------------------------



     CUMULATIVE VOLUMES      L**3       RATES FOR THIS TIME STEP      L**3/T
     ------------------                 ------------------------

           IN:                                      IN:
           ---                                      ---
        INFILTRATION =       26653.0419          INFILTRATION =       0.0000E+00

          OUT:                                     OUT:
          ----                                     ----
              UZF ET =      658112.0642                UZF ET =           0.2287
        UZF RECHARGE =     2499883.1691          UZF RECHARGE =        9959.3903

            IN - OUT =    -3131342.1914              IN - OUT =       -9959.6190

          STORAGE:                                 STORAGE:
          --------                                 --------
      STORAGE CHANGE =    -3129361.9770        STORAGE CHANGE =       -9959.5589

 PERCENT DISCREPANCY IS DIFFERENCE BETWEEN IN-OUT MINUS CHANGE IN STORAGE
 DIVIDED BY THE AVERAGE OF IN AND OUT TIMES 100

 PERCENT DISCREPANCY =          -0.02     PERCENT DISCREPANCY =          -0.00








        GW IRRIGATION     PERIOD    7   STEP   1

1
  VOLUMETRIC BUDGET FOR AGRICULTURAL FIELDS AT  END OF TIME STEP    1, STRESS PERIOD   7
  ------------------------------------------------------------------------------

     CUMULATIVE VOLUMES      L**3       RATES FOR THIS TIME STEP      L**3/T
     ------------------                 ------------------------

           IN:                                      IN:
           ---                                      ---
               AG WELLS  =           0.0000                 AG WELLS  =          -0.0000
      DIVERSION SEGMENTS =           0.0000        DIVERSION SEGMENTS =           0.0000
       IRRIGATION PONDS  =           0.0000         IRRIGATION PONDS  =           0.0000
           GW IRRIGATION =           0.0000             GW IRRIGATION =           0.0000
           SW IRRIGATION =           0.0000             SW IRRIGATION =           0.0000
        SYSTEM LOSSES GW =           0.0000          SYSTEM LOSSES GW =           0.0000
        SYSTEM LOSSES SW =           0.0000          SYSTEM LOSSES SW =          -0.0000

                TOTAL IN =           0.0000                  TOTAL IN =           0.0000

          OUT:                                     OUT:
          ----                                     ----
               AG WELLS  =           0.0000                 AG WELLS  =           0.0000
      DIVERSION SEGMENTS =           0.0000        DIVERSION SEGMENTS =           0.0000
       IRRIGATION PONDS  =           0.0000         IRRIGATION PONDS  =           0.0000
           GW IRRIGATION =           0.0000             GW IRRIGATION =           0.0000
           SW IRRIGATION =           0.0000             SW IRRIGATION =           0.0000
        SYSTEM LOSSES GW =           0.0000          SYSTEM LOSSES GW =           0.0000
        SYSTEM LOSSES SW =           0.0000          SYSTEM LOSSES SW =           0.0000

               TOTAL OUT =           0.0000                 TOTAL OUT =           0.0000

                IN - OUT =           0.0000                  IN - OUT =           0.0000

     PERCENT DISCREPANCY =           0.00         PERCENT DISCREPANCY =           0.00




 HEAD WILL BE SAVED ON UNIT   58 AT END OF TIME STEP    1, STRESS PERIOD    7
1
  VOLUMETRIC BUDGET FOR ENTIRE MODEL AT END OF TIME STEP    1, STRESS PERIOD   7
  ------------------------------------------------------------------------------

     CUMULATIVE VOLUMES      L**3       RATES FOR THIS TIME STEP      L**3/T
     ------------------                 ------------------------

           IN:                                      IN:
           ---                                      ---
             STORAGE     =      569368.8125               STORAGE     =        6667.8550
       CONSTANT HEAD     =          31.9695         CONSTANT HEAD     =           0.8183
      STREAM LEAKAGE     =      403839.4062        STREAM LEAKAGE     =        2526.0520
        UZF RECHARGE     =     2499897.2500          UZF RECHARGE     =        9959.3936
               GW ET     =           0.0000                 GW ET     =           0.0000
     SURFACE LEAKAGE     =           0.0000       SURFACE LEAKAGE     =           0.0000
           AG WELLS      =           0.0000             AG WELLS      =           0.0000

                TOTAL IN =     3473137.5000                  TOTAL IN =       19154.1191

          OUT:                                     OUT:
          ----                                     ----
             STORAGE     =     1010435.5000               STORAGE     =        3830.7654
       CONSTANT HEAD     =        5465.7002         CONSTANT HEAD     =          35.1879
      STREAM LEAKAGE     =     1943724.5000        STREAM LEAKAGE     =       13590.4941
        UZF RECHARGE     =           0.0000          UZF RECHARGE     =           0.0000
               GW ET     =      495240.8750                 GW ET     =        1532.9674
     SURFACE LEAKAGE     =       18494.8066       SURFACE LEAKAGE     =         168.3938
           AG WELLS      =           0.0000             AG WELLS      =           0.0000

               TOTAL OUT =     3473361.2500                 TOTAL OUT =       19157.8086

                IN - OUT =        -223.7500                  IN - OUT =          -3.6895

     PERCENT DISCREPANCY =          -0.01         PERCENT DISCREPANCY =          -0.02






         TIME SUMMARY AT END OF TIME STEP    1 IN STRESS PERIOD    7
                    SECONDS     MINUTES      HOURS       DAYS        YEARS
                    -----------------------------------------------------------
   TIME STEP LENGTH  86400.      1440.0      24.000      1.0000     2.73785E-03
 STRESS PERIOD TIME  86400.      1440.0      24.000      1.0000     2.73785E-03
         TOTAL TIME 1.32192E+07 2.20320E+05  3672.0      153.00     0.41889    
1
                                                   Max.-Head-Change                         Max.-Flux-Residual
  Residual-Control   Outer-Iter.   Inner-Iter.     Column Row Layer    Maximum-Head-Change  Column Row Layer    Maximum-Flux-Residual          L2-NORM 
          0                 1           6            67   49     2       0.8400960778E+00      46   42    1         0.3999147402E+02      0.2269189853E+03
          0                 2           4            23   33     1       0.9232687450E+00      23   33    1         0.1221039759E+02      0.4763861974E+02
          0                 3           2             6   49     1      -0.3365521015E-02      64   38    1         0.4448742699E+01      0.1776869723E+02
          0                 4           2            63   38     1       0.4391510147E-02      63   38    1         0.6208959528E+01      0.1103025934E+02
          0                 5           2            64   38     1       0.1885639127E-02      64   38    1         0.2671354418E+01      0.4546480429E+01
          0                 6           1            64   38     1       0.5275886067E-03      64   38    1         0.7500741233E+00      0.1719334464E+01

    ------------------------------------------------
       NWT REQUIRED            6 OUTER ITERATIONS 
       AND A TOTAL OF         17 INNER ITERATIONS.
    ------------------------------------------------

 NO OUTPUT CONTROL FOR STRESS PERIOD    7   TIME STEP    2
 ***WARNING***NUZTOP IS 3 AND ALL LAYERS  IN ROW           39  AND COLUMN           76  ARE INACTIVE.
 UNSATURATED FLOW WILL NOT BE ADDED TO ANY LAYER-- SOME WATER MAY FLOW PAST LOWEST LAYER
 ***WARNING***NUZTOP IS 3 AND ALL LAYERS  IN ROW           40  AND COLUMN           76  ARE INACTIVE.
 UNSATURATED FLOW WILL NOT BE ADDED TO ANY LAYER-- SOME WATER MAY FLOW PAST LOWEST LAYER
                                                   Max.-Head-Change                         Max.-Flux-Residual
  Residual-Control   Outer-Iter.   Inner-Iter.     Column Row Layer    Maximum-Head-Change  Column Row Layer    Maximum-Flux-Residual          L2-NORM 
          0                 1           5            29   34     1       0.6754576950E+00      46   42    1         0.4375883690E+02      0.2300635024E+03
          0                 2           4            41   17     1       0.3109195911E+00      63   38    1        -0.6448664032E+01      0.4487056544E+02
          0                 3           2            63   38     1      -0.4107682728E-02      63   38    1        -0.5803022967E+01      0.1830087509E+02
          0                 4           2            64   38     1      -0.3802119344E-02      64   38    1        -0.5358296167E+01      0.1025309310E+02
          0                 5           2            64   38     1      -0.1640064909E-02      64   38    1        -0.2322997165E+01      0.4239183502E+01
          0                 6           1            64   38     1      -0.4605205686E-03      64   38    1        -0.6542362091E+00      0.1673203624E+01

    ------------------------------------------------
       NWT REQUIRED            6 OUTER ITERATIONS 
       AND A TOTAL OF         16 INNER ITERATIONS.
    ------------------------------------------------

 NO OUTPUT CONTROL FOR STRESS PERIOD    7   TIME STEP    3
 ***WARNING***NUZTOP IS 3 AND ALL LAYERS  IN ROW           39  AND COLUMN           76  ARE INACTIVE.
 UNSATURATED FLOW WILL NOT BE ADDED TO ANY LAYER-- SOME WATER MAY FLOW PAST LOWEST LAYER
 ***WARNING***NUZTOP IS 3 AND ALL LAYERS  IN ROW           40  AND COLUMN           76  ARE INACTIVE.
 UNSATURATED FLOW WILL NOT BE ADDED TO ANY LAYER-- SOME WATER MAY FLOW PAST LOWEST LAYER
                                                   Max.-Head-Change                         Max.-Flux-Residual
  Residual-Control   Outer-Iter.   Inner-Iter.     Column Row Layer    Maximum-Head-Change  Column Row Layer    Maximum-Flux-Residual          L2-NORM 
          0                 1           6            62   31     1      -0.1379378363E+01      46   42    1         0.3771972861E+02      0.2167853652E+03
          0                 2           3            61   34     1      -0.3559078278E-01      66   24    1        -0.2781558504E+02      0.6164419712E+02
          0                 3           2            64   38     1      -0.1006290366E-01      64   38    1        -0.1422321352E+02      0.2736862659E+02
          0                 4           2            64   38     1      -0.6777923891E-02      64   38    1        -0.9565230537E+01      0.1536023428E+02
          0                 5           2            64   38     1      -0.2698547698E-02      64   38    1        -0.3825494422E+01      0.5773176483E+01
          0                 6           1            64   38     1      -0.7299622080E-03      64   38    1        -0.1037935857E+01      0.1948560313E+01

    ------------------------------------------------
       NWT REQUIRED            6 OUTER ITERATIONS 
       AND A TOTAL OF         16 INNER ITERATIONS.
    ------------------------------------------------

 NO OUTPUT CONTROL FOR STRESS PERIOD    7   TIME STEP    4
 ***WARNING***NUZTOP IS 3 AND ALL LAYERS  IN ROW           39  AND COLUMN           76  ARE INACTIVE.
 UNSATURATED FLOW WILL NOT BE ADDED TO ANY LAYER-- SOME WATER MAY FLOW PAST LOWEST LAYER
 ***WARNING***NUZTOP IS 3 AND ALL LAYERS  IN ROW           40  AND COLUMN           76  ARE INACTIVE.
 UNSATURATED FLOW WILL NOT BE ADDED TO ANY LAYER-- SOME WATER MAY FLOW PAST LOWEST LAYER
                                                   Max.-Head-Change                         Max.-Flux-Residual
  Residual-Control   Outer-Iter.   Inner-Iter.     Column Row Layer    Maximum-Head-Change  Column Row Layer    Maximum-Flux-Residual          L2-NORM 
          0                 1           6            62   31     1       0.1651190445E+01      46   42    1         0.3328089451E+02      0.2253118987E+03
          0                 2           3            20   52     1       0.4145387929E+00      66   24    1         0.3757774013E+02      0.7568312709E+02
          0                 3           3            64   38     1       0.1530899409E-01      64   38    1         0.2161417957E+02      0.3680260748E+02
          0                 4           3            64   38     1       0.1239689540E-01      64   38    1         0.1747585887E+02      0.2602903550E+02
          0                 5           2            64   38     1       0.5053211146E-02      64   38    1         0.7159816120E+01      0.9409692346E+01
          0                 6           2            64   38     1       0.1342179540E-02      64   38    1         0.1907086311E+01      0.2678327991E+01
          0                 7           1            64   38     1       0.2761427079E-03      64   38    1         0.3930365800E+00      0.8768568487E+00

    ------------------------------------------------
       NWT REQUIRED            7 OUTER ITERATIONS 
       AND A TOTAL OF         20 INNER ITERATIONS.
    ------------------------------------------------

 NO OUTPUT CONTROL FOR STRESS PERIOD    7   TIME STEP    5
 ***WARNING***NUZTOP IS 3 AND ALL LAYERS  IN ROW           39  AND COLUMN           76  ARE INACTIVE.
 UNSATURATED FLOW WILL NOT BE ADDED TO ANY LAYER-- SOME WATER MAY FLOW PAST LOWEST LAYER
 ***WARNING***NUZTOP IS 3 AND ALL LAYERS  IN ROW           40  AND COLUMN           76  ARE INACTIVE.
 UNSATURATED FLOW WILL NOT BE ADDED TO ANY LAYER-- SOME WATER MAY FLOW PAST LOWEST LAYER
                                                   Max.-Head-Change                         Max.-Flux-Residual
  Residual-Control   Outer-Iter.   Inner-Iter.     Column Row Layer    Maximum-Head-Change  Column Row Layer    Maximum-Flux-Residual          L2-NORM 
          0                 1           6            68   48     1       0.7863496859E+00      46   42    1         0.4464905282E+02      0.2513456052E+03
          0                 2           4            40   29     1       0.1481254121E+01      40   29    1         0.2398540390E+02      0.5636123811E+02
          0                 3           2            64   38     1       0.7059526882E-02      64   38    1         0.9957833963E+01      0.2215011395E+02
          0                 4           2            63   38     1       0.7472238654E-02      63   38    1         0.1055722400E+02      0.1648457315E+02
          0                 5           2            64   38     1       0.3159758580E-02      64   38    1         0.4477515756E+01      0.6315936193E+01
          0                 6           1            64   38     1       0.8555225409E-03      64   38    1         0.1216486690E+01      0.2021003268E+01

    ------------------------------------------------
       NWT REQUIRED            6 OUTER ITERATIONS 
       AND A TOTAL OF         17 INNER ITERATIONS.
    ------------------------------------------------

 NO OUTPUT CONTROL FOR STRESS PERIOD    7   TIME STEP    6
 ***WARNING***NUZTOP IS 3 AND ALL LAYERS  IN ROW           39  AND COLUMN           76  ARE INACTIVE.
 UNSATURATED FLOW WILL NOT BE ADDED TO ANY LAYER-- SOME WATER MAY FLOW PAST LOWEST LAYER
 ***WARNING***NUZTOP IS 3 AND ALL LAYERS  IN ROW           40  AND COLUMN           76  ARE INACTIVE.
 UNSATURATED FLOW WILL NOT BE ADDED TO ANY LAYER-- SOME WATER MAY FLOW PAST LOWEST LAYER
                                                   Max.-Head-Change                         Max.-Flux-Residual
  Residual-Control   Outer-Iter.   Inner-Iter.     Column Row Layer    Maximum-Head-Change  Column Row Layer    Maximum-Flux-Residual          L2-NORM 
          0                 1           5            62   31     1      -0.7576065246E+00      46   42    1         0.4964916957E+02      0.2557159200E+03
          0                 2           4            71   18     1       0.6093309123E+00      66   24    1        -0.1654214422E+02      0.5294317817E+02
          0                 3           2            64   38     1      -0.6213518576E-02      64   38    1        -0.8775069527E+01      0.2120137464E+02
          0                 4           2            64   38     1      -0.4628874909E-02      64   38    1        -0.6528331876E+01      0.1159844051E+02
          0                 5           2            64   38     1      -0.1856469465E-02      64   38    1        -0.2630620616E+01      0.4507335841E+01
          0                 6           1            64   38     1      -0.4966983174E-03      64   38    1        -0.7058323067E+00      0.1705195190E+01

    ------------------------------------------------
       NWT REQUIRED            6 OUTER ITERATIONS 
       AND A TOTAL OF         16 INNER ITERATIONS.
    ------------------------------------------------

 NO OUTPUT CONTROL FOR STRESS PERIOD    7   TIME STEP    7
 ***WARNING***NUZTOP IS 3 AND ALL LAYERS  IN ROW           39  AND COLUMN           76  ARE INACTIVE.
 UNSATURATED FLOW WILL NOT BE ADDED TO ANY LAYER-- SOME WATER MAY FLOW PAST LOWEST LAYER
 ***WARNING***NUZTOP IS 3 AND ALL LAYERS  IN ROW           40  AND COLUMN           76  ARE INACTIVE.
 UNSATURATED FLOW WILL NOT BE ADDED TO ANY LAYER-- SOME WATER MAY FLOW PAST LOWEST LAYER
                                                   Max.-Head-Change                         Max.-Flux-Residual
  Residual-Control   Outer-Iter.   Inner-Iter.     Column Row Layer    Maximum-Head-Change  Column Row Layer    Maximum-Flux-Residual          L2-NORM 
          0                 1           6            39   30     1       0.5200359744E+00      46   42    1         0.4332979868E+02      0.2325759795E+03
          0                 2           2            62   31     1      -0.1197949989E-01      66   24    1        -0.9531001217E+01      0.4600012514E+02
          0                 3           2            64   38     1      -0.5265423435E-02      64   38    1        -0.7425077075E+01      0.1957019917E+02
          0                 4           2            64   38     1      -0.4838397710E-02      64   38    1        -0.6819720248E+01      0.1191913548E+02
          0                 5           2            64   38     1      -0.2026199978E-02      64   38    1        -0.2871870812E+01      0.4690231770E+01
          0                 6           1            64   38     1      -0.5478523656E-03      64   38    1        -0.7790445063E+00      0.1736806312E+01

    ------------------------------------------------
       NWT REQUIRED            6 OUTER ITERATIONS 
       AND A TOTAL OF         15 INNER ITERATIONS.
    ------------------------------------------------

 NO OUTPUT CONTROL FOR STRESS PERIOD    7   TIME STEP    8
 ***WARNING***NUZTOP IS 3 AND ALL LAYERS  IN ROW           39  AND COLUMN           76  ARE INACTIVE.
 UNSATURATED FLOW WILL NOT BE ADDED TO ANY LAYER-- SOME WATER MAY FLOW PAST LOWEST LAYER
 ***WARNING***NUZTOP IS 3 AND ALL LAYERS  IN ROW           40  AND COLUMN           76  ARE INACTIVE.
 UNSATURATED FLOW WILL NOT BE ADDED TO ANY LAYER-- SOME WATER MAY FLOW PAST LOWEST LAYER
                                                   Max.-Head-Change                         Max.-Flux-Residual
  Residual-Control   Outer-Iter.   Inner-Iter.     Column Row Layer    Maximum-Head-Change  Column Row Layer    Maximum-Flux-Residual          L2-NORM 
          0                 1           6            68   48     1      -0.6347519018E+00      46   42    1         0.3523954060E+02      0.2131113613E+03
          0                 2           4            66   47     1       0.4297108743E+00      63   38    1        -0.1332363878E+02      0.4825478061E+02
          0                 3           3            67   47     1       0.7167337588E-02      64   38    1        -0.8368116462E+01      0.2033046457E+02
          0                 4           2            64   38     1      -0.5095582470E-02      64   38    1        -0.7182957667E+01      0.1237571557E+02
          0                 5           2            64   38     1      -0.2174531597E-02      64   38    1        -0.3081448969E+01      0.4923010172E+01
          0                 6           1            64   38     1      -0.6030501750E-03      64   38    1        -0.8573634977E+00      0.1797091152E+01

    ------------------------------------------------
       NWT REQUIRED            6 OUTER ITERATIONS 
       AND A TOTAL OF         18 INNER ITERATIONS.
    ------------------------------------------------

 NO OUTPUT CONTROL FOR STRESS PERIOD    7   TIME STEP    9
 ***WARNING***NUZTOP IS 3 AND ALL LAYERS  IN ROW           39  AND COLUMN           76  ARE INACTIVE.
 UNSATURATED FLOW WILL NOT BE ADDED TO ANY LAYER-- SOME WATER MAY FLOW PAST LOWEST LAYER
 ***WARNING***NUZTOP IS 3 AND ALL LAYERS  IN ROW           40  AND COLUMN           76  ARE INACTIVE.
 UNSATURATED FLOW WILL NOT BE ADDED TO ANY LAYER-- SOME WATER MAY FLOW PAST LOWEST LAYER
                                                   Max.-Head-Change                         Max.-Flux-Residual
  Residual-Control   Outer-Iter.   Inner-Iter.     Column Row Layer    Maximum-Head-Change  Column Row Layer    Maximum-Flux-Residual          L2-NORM 
          0                 1           6            62   31     1       0.9819593532E+00      46   42    1         0.3075613617E+02      0.2115374051E+03
          0                 2           4            50   22     1       0.2409107838E+00      66   24    1         0.2164820335E+02      0.5560841543E+02
          0                 3           2            64   38     1       0.7860444280E-02      64   38    1         0.1110476729E+02      0.2358395521E+02
          0                 4           2            64   38     1       0.4602350298E-02      64   38    1         0.6499159928E+01      0.1146959033E+02
          0                 5           2            64   38     1       0.1611588887E-02      64   38    1         0.2285847679E+01      0.4237879925E+01
          0                 6           1             8   45     1      -0.4452770804E-03      64   38    1         0.5585421560E+00      0.1656605727E+01

    ------------------------------------------------
       NWT REQUIRED            6 OUTER ITERATIONS 
       AND A TOTAL OF         17 INNER ITERATIONS.
    ------------------------------------------------

 NO OUTPUT CONTROL FOR STRESS PERIOD    7   TIME STEP   10
 ***WARNING***NUZTOP IS 3 AND ALL LAYERS  IN ROW           39  AND COLUMN           76  ARE INACTIVE.
 UNSATURATED FLOW WILL NOT BE ADDED TO ANY LAYER-- SOME WATER MAY FLOW PAST LOWEST LAYER
 ***WARNING***NUZTOP IS 3 AND ALL LAYERS  IN ROW           40  AND COLUMN           76  ARE INACTIVE.
 UNSATURATED FLOW WILL NOT BE ADDED TO ANY LAYER-- SOME WATER MAY FLOW PAST LOWEST LAYER
                                                   Max.-Head-Change                         Max.-Flux-Residual
  Residual-Control   Outer-Iter.   Inner-Iter.     Column Row Layer    Maximum-Head-Change  Column Row Layer    Maximum-Flux-Residual          L2-NORM 
          0                 1           6            68   48     1       0.1020652715E+01      46   42    1         0.3578036292E+02      0.2381318539E+03
          0                 2           4            26   32     1       0.6234599010E+00      63   38    1         0.1798044579E+02      0.5634549566E+02
          0                 3           2            64   38     1       0.1022716539E-01      64   38    1         0.1441890507E+02      0.2699685779E+02
          0                 4           2            63   38     1       0.1064943617E-01      63   38    1         0.1504464539E+02      0.2245403155E+02
          0                 5           2            64   38     1       0.4501073013E-02      64   38    1         0.6378433427E+01      0.8443661615E+01
          0                 6           2            64   38     1       0.1217915881E-02      64   38    1         0.1731431764E+01      0.2474712891E+01
          0                 7           1            64   38     1       0.2523693399E-03      64   38    1         0.3595045510E+00      0.8455813771E+00

    ------------------------------------------------
       NWT REQUIRED            7 OUTER ITERATIONS 
       AND A TOTAL OF         19 INNER ITERATIONS.
    ------------------------------------------------

 NO OUTPUT CONTROL FOR STRESS PERIOD    7   TIME STEP   11
 ***WARNING***NUZTOP IS 3 AND ALL LAYERS  IN ROW           39  AND COLUMN           76  ARE INACTIVE.
 UNSATURATED FLOW WILL NOT BE ADDED TO ANY LAYER-- SOME WATER MAY FLOW PAST LOWEST LAYER
 ***WARNING***NUZTOP IS 3 AND ALL LAYERS  IN ROW           40  AND COLUMN           76  ARE INACTIVE.
 UNSATURATED FLOW WILL NOT BE ADDED TO ANY LAYER-- SOME WATER MAY FLOW PAST LOWEST LAYER
                                                   Max.-Head-Change                         Max.-Flux-Residual
  Residual-Control   Outer-Iter.   Inner-Iter.     Column Row Layer    Maximum-Head-Change  Column Row Layer    Maximum-Flux-Residual          L2-NORM 
          0                 1           6            26   32     1       0.8439020303E+00      46   42    1         0.4408741944E+02      0.2472689851E+03
          0                 2           4            42   28     1       0.6719466034E+00      42   28    1         0.1059011761E+02      0.4708630046E+02
          0                 3           2            42   29     1       0.7976907687E-02      64   38    1        -0.6413953491E+01      0.1884236938E+02
          0                 4           2            63   38     1      -0.4433071358E-02      63   38    1        -0.6260495781E+01      0.1126825402E+02
          0                 5           2            64   38     1      -0.1890689186E-02      64   38    1        -0.2678224378E+01      0.4534460370E+01
          0                 6           1            64   38     1      -0.5186543378E-03      64   38    1        -0.7369393464E+00      0.1712554523E+01

    ------------------------------------------------
       NWT REQUIRED            6 OUTER ITERATIONS 
       AND A TOTAL OF         17 INNER ITERATIONS.
    ------------------------------------------------

 NO OUTPUT CONTROL FOR STRESS PERIOD    7   TIME STEP   12
 ***WARNING***NUZTOP IS 3 AND ALL LAYERS  IN ROW           39  AND COLUMN           76  ARE INACTIVE.
 UNSATURATED FLOW WILL NOT BE ADDED TO ANY LAYER-- SOME WATER MAY FLOW PAST LOWEST LAYER
 ***WARNING***NUZTOP IS 3 AND ALL LAYERS  IN ROW           40  AND COLUMN           76  ARE INACTIVE.
 UNSATURATED FLOW WILL NOT BE ADDED TO ANY LAYER-- SOME WATER MAY FLOW PAST LOWEST LAYER
                                                   Max.-Head-Change                         Max.-Flux-Residual
  Residual-Control   Outer-Iter.   Inner-Iter.     Column Row Layer    Maximum-Head-Change  Column Row Layer    Maximum-Flux-Residual          L2-NORM 
          0                 1           6            42   28     1       0.5792442087E+00      46   42    1         0.3840762029E+02      0.2337022738E+03
          0                 2           4            37   29     1       0.4277813967E+00      37   29    1         0.5428828981E+01      0.4480898422E+02
          0                 3           2            37   28     1       0.3621565828E-02      64   38    1        -0.3050586684E+01      0.1688157803E+02
          0                 4           2            63   38     1      -0.2410670408E-02      63   38    1        -0.3406579910E+01      0.8404506929E+01
          0                 5           2            64   38     1      -0.1050893962E-02      64   38    1        -0.1488823611E+01      0.3668805651E+01
          0                 6           1             8   45     1      -0.4395925735E-03      64   38    1        -0.4220553294E+00      0.1588380850E+01

    ------------------------------------------------
       NWT REQUIRED            6 OUTER ITERATIONS 
       AND A TOTAL OF         17 INNER ITERATIONS.
    ------------------------------------------------

 NO OUTPUT CONTROL FOR STRESS PERIOD    7   TIME STEP   13
 ***WARNING***NUZTOP IS 3 AND ALL LAYERS  IN ROW           39  AND COLUMN           76  ARE INACTIVE.
 UNSATURATED FLOW WILL NOT BE ADDED TO ANY LAYER-- SOME WATER MAY FLOW PAST LOWEST LAYER
 ***WARNING***NUZTOP IS 3 AND ALL LAYERS  IN ROW           40  AND COLUMN           76  ARE INACTIVE.
 UNSATURATED FLOW WILL NOT BE ADDED TO ANY LAYER-- SOME WATER MAY FLOW PAST LOWEST LAYER
                                                   Max.-Head-Change                         Max.-Flux-Residual
  Residual-Control   Outer-Iter.   Inner-Iter.     Column Row Layer    Maximum-Head-Change  Column Row Layer    Maximum-Flux-Residual          L2-NORM 
          0                 1           4            67   16     1       0.4522111436E+00      46   42    1         0.3486698127E+02      0.2265177015E+03
          0                 2           4            54    4     1       0.3199918448E+00      54    4    1         0.8725228575E+01      0.4518143255E+02
          0                 3           2             7   46     1      -0.3349117626E-02       7   46    1        -0.2188078479E+01      0.1637516595E+02
          0                 4           2             7   46     1      -0.1643283619E-02       7   46    1        -0.1073474189E+01      0.6968200192E+01
          0                 5           1             8   45     1      -0.8261933872E-03       8   45    1        -0.5381019090E+00      0.3213026208E+01

    ------------------------------------------------
       NWT REQUIRED            5 OUTER ITERATIONS 
       AND A TOTAL OF         13 INNER ITERATIONS.
    ------------------------------------------------

 NO OUTPUT CONTROL FOR STRESS PERIOD    7   TIME STEP   14
 ***WARNING***NUZTOP IS 3 AND ALL LAYERS  IN ROW           39  AND COLUMN           76  ARE INACTIVE.
 UNSATURATED FLOW WILL NOT BE ADDED TO ANY LAYER-- SOME WATER MAY FLOW PAST LOWEST LAYER
 ***WARNING***NUZTOP IS 3 AND ALL LAYERS  IN ROW           40  AND COLUMN           76  ARE INACTIVE.
 UNSATURATED FLOW WILL NOT BE ADDED TO ANY LAYER-- SOME WATER MAY FLOW PAST LOWEST LAYER
                                                   Max.-Head-Change                         Max.-Flux-Residual
  Residual-Control   Outer-Iter.   Inner-Iter.     Column Row Layer    Maximum-Head-Change  Column Row Layer    Maximum-Flux-Residual          L2-NORM 
          0                 1           6            69   51     1       0.8472876934E+00      46   42    1         0.3545586020E+02      0.2410379871E+03
          0                 2           3            50   38     1       0.1075013275E+00      66   24    1         0.1585490956E+02      0.5325943760E+02
          0                 3           2            64   38     1       0.8007865182E-02      64   38    1         0.1129522528E+02      0.2370709540E+02
          0                 4           2            63   38     1       0.8023692390E-02      63   38    1         0.1133417165E+02      0.1763927551E+02
          0                 5           2            64   38     1       0.3385509076E-02      64   38    1         0.4797725149E+01      0.6732780487E+01
          0                 6           1            64   38     1       0.9127055212E-03      64   38    1         0.1297822175E+01      0.2149776432E+01

    ------------------------------------------------
       NWT REQUIRED            6 OUTER ITERATIONS 
       AND A TOTAL OF         16 INNER ITERATIONS.
    ------------------------------------------------

 NO OUTPUT CONTROL FOR STRESS PERIOD    7   TIME STEP   15
 ***WARNING***NUZTOP IS 3 AND ALL LAYERS  IN ROW           39  AND COLUMN           76  ARE INACTIVE.
 UNSATURATED FLOW WILL NOT BE ADDED TO ANY LAYER-- SOME WATER MAY FLOW PAST LOWEST LAYER
 ***WARNING***NUZTOP IS 3 AND ALL LAYERS  IN ROW           40  AND COLUMN           76  ARE INACTIVE.
 UNSATURATED FLOW WILL NOT BE ADDED TO ANY LAYER-- SOME WATER MAY FLOW PAST LOWEST LAYER
                                                   Max.-Head-Change                         Max.-Flux-Residual
  Residual-Control   Outer-Iter.   Inner-Iter.     Column Row Layer    Maximum-Head-Change  Column Row Layer    Maximum-Flux-Residual          L2-NORM 
          0                 1           6            50   38     1       0.3144662427E+00      46   42    1         0.4214657920E+02      0.2548544774E+03
          0                 2           5            68   37     1       0.7104124803E+00      29   54    1         0.8950935836E+01      0.4794462672E+02
          0                 3           2            68   37     1      -0.7533327204E-02       7   46    1        -0.2102450585E+01      0.1655968714E+02
          0                 4           2             6   49     1      -0.1587684356E-02       6   49    1        -0.1036459901E+01      0.7095649837E+01
          0                 5           1             8   45     1      -0.8195635469E-03       8   45    1        -0.5337687161E+00      0.3243297084E+01

    ------------------------------------------------
       NWT REQUIRED            5 OUTER ITERATIONS 
       AND A TOTAL OF         16 INNER ITERATIONS.
    ------------------------------------------------

 NO OUTPUT CONTROL FOR STRESS PERIOD    7   TIME STEP   16
 ***WARNING***NUZTOP IS 3 AND ALL LAYERS  IN ROW           39  AND COLUMN           76  ARE INACTIVE.
 UNSATURATED FLOW WILL NOT BE ADDED TO ANY LAYER-- SOME WATER MAY FLOW PAST LOWEST LAYER
 ***WARNING***NUZTOP IS 3 AND ALL LAYERS  IN ROW           40  AND COLUMN           76  ARE INACTIVE.
 UNSATURATED FLOW WILL NOT BE ADDED TO ANY LAYER-- SOME WATER MAY FLOW PAST LOWEST LAYER
                                                   Max.-Head-Change                         Max.-Flux-Residual
  Residual-Control   Outer-Iter.   Inner-Iter.     Column Row Layer    Maximum-Head-Change  Column Row Layer    Maximum-Flux-Residual          L2-NORM 
          0                 1           6            68   48     1      -0.7242559198E+00      46   42    1         0.3956740573E+02      0.2469341900E+03
          0                 2           4            59   47     1       0.4425472045E+00      63   38    1        -0.1687685688E+02      0.5368052020E+02
          0                 3           2            64   38     1      -0.9023699262E-02      64   38    1        -0.1272729552E+02      0.2520010391E+02
          0                 4           2            63   38     1      -0.9159856777E-02      63   38    1        -0.1293997003E+02      0.1972692563E+02
          0                 5           2            64   38     1      -0.3626394616E-02      64   38    1        -0.5142614484E+01      0.7014018469E+01
          0                 6           1            64   38     1      -0.9114721627E-03      64   38    1        -0.1296950977E+01      0.2133630281E+01

    ------------------------------------------------
       NWT REQUIRED            6 OUTER ITERATIONS 
       AND A TOTAL OF         17 INNER ITERATIONS.
    ------------------------------------------------

 NO OUTPUT CONTROL FOR STRESS PERIOD    7   TIME STEP   17
 ***WARNING***NUZTOP IS 3 AND ALL LAYERS  IN ROW           39  AND COLUMN           76  ARE INACTIVE.
 UNSATURATED FLOW WILL NOT BE ADDED TO ANY LAYER-- SOME WATER MAY FLOW PAST LOWEST LAYER
 ***WARNING***NUZTOP IS 3 AND ALL LAYERS  IN ROW           40  AND COLUMN           76  ARE INACTIVE.
 UNSATURATED FLOW WILL NOT BE ADDED TO ANY LAYER-- SOME WATER MAY FLOW PAST LOWEST LAYER
                                                   Max.-Head-Change                         Max.-Flux-Residual
  Residual-Control   Outer-Iter.   Inner-Iter.     Column Row Layer    Maximum-Head-Change  Column Row Layer    Maximum-Flux-Residual          L2-NORM 
          0                 1           5            59   47     2       0.1266116177E+00      46   42    1         0.3011795073E+02      0.2228067156E+03
          0                 2           3            68   56     1       0.3881778141E+00      68   56    1         0.5442643013E+01      0.4499980521E+02
          0                 3           2             7   46     1      -0.3189760046E-02      64   38    1         0.2163551702E+01      0.1682698568E+02
          0                 4           2            63   38     1       0.1634512075E-02      63   38    1         0.2309002337E+01      0.7752030332E+01
          0                 5           1             8   45     1      -0.8131292193E-03      64   38    1         0.9470933551E+00      0.3428763685E+01

    ------------------------------------------------
       NWT REQUIRED            5 OUTER ITERATIONS 
       AND A TOTAL OF         13 INNER ITERATIONS.
    ------------------------------------------------

 NO OUTPUT CONTROL FOR STRESS PERIOD    7   TIME STEP   18
 ***WARNING***NUZTOP IS 3 AND ALL LAYERS  IN ROW           39  AND COLUMN           76  ARE INACTIVE.
 UNSATURATED FLOW WILL NOT BE ADDED TO ANY LAYER-- SOME WATER MAY FLOW PAST LOWEST LAYER
 ***WARNING***NUZTOP IS 3 AND ALL LAYERS  IN ROW           40  AND COLUMN           76  ARE INACTIVE.
 UNSATURATED FLOW WILL NOT BE ADDED TO ANY LAYER-- SOME WATER MAY FLOW PAST LOWEST LAYER
                                                   Max.-Head-Change                         Max.-Flux-Residual
  Residual-Control   Outer-Iter.   Inner-Iter.     Column Row Layer    Maximum-Head-Change  Column Row Layer    Maximum-Flux-Residual          L2-NORM 
          0                 1           5            68   56     1       0.2530719324E+00      46   42    1         0.3040813609E+02      0.2226821742E+03
          0                 2           5            40   63     1       0.6694575833E+00      40   63    1         0.1352671561E+02      0.4639201272E+02
          0                 3           2             7   46     1      -0.3176033553E-02       7   46    1        -0.2074646566E+01      0.1654736100E+02
          0                 4           2             6   49     1      -0.1568912854E-02       6   49    1        -0.1024183241E+01      0.7059155246E+01
          0                 5           1             8   45     1      -0.8100220384E-03       8   45    1        -0.5275386947E+00      0.3254075906E+01

    ------------------------------------------------
       NWT REQUIRED            5 OUTER ITERATIONS 
       AND A TOTAL OF         15 INNER ITERATIONS.
    ------------------------------------------------

 NO OUTPUT CONTROL FOR STRESS PERIOD    7   TIME STEP   19
 ***WARNING***NUZTOP IS 3 AND ALL LAYERS  IN ROW           39  AND COLUMN           76  ARE INACTIVE.
 UNSATURATED FLOW WILL NOT BE ADDED TO ANY LAYER-- SOME WATER MAY FLOW PAST LOWEST LAYER
 ***WARNING***NUZTOP IS 3 AND ALL LAYERS  IN ROW           40  AND COLUMN           76  ARE INACTIVE.
 UNSATURATED FLOW WILL NOT BE ADDED TO ANY LAYER-- SOME WATER MAY FLOW PAST LOWEST LAYER
                                                   Max.-Head-Change                         Max.-Flux-Residual
  Residual-Control   Outer-Iter.   Inner-Iter.     Column Row Layer    Maximum-Head-Change  Column Row Layer    Maximum-Flux-Residual          L2-NORM 
          0                 1           5            40   63     2       0.1649917560E+00      46   42    1         0.2964299178E+02      0.2226111106E+03
          0                 2           2             7   46     1      -0.6445133092E-02       7   46    1        -0.4210503552E+01      0.4440599623E+02
          0                 3           2             7   46     1      -0.3162535332E-02       7   46    1        -0.2065800795E+01      0.1661472387E+02
          0                 4           2             6   49     1      -0.1562916771E-02       6   49    1        -0.1020258841E+01      0.7171883817E+01
          0                 5           1             8   45     1      -0.8069575392E-03       8   45    1        -0.5255357963E+00      0.3281966037E+01

    ------------------------------------------------
       NWT REQUIRED            5 OUTER ITERATIONS 
       AND A TOTAL OF         12 INNER ITERATIONS.
    ------------------------------------------------

 NO OUTPUT CONTROL FOR STRESS PERIOD    7   TIME STEP   20
 ***WARNING***NUZTOP IS 3 AND ALL LAYERS  IN ROW           39  AND COLUMN           76  ARE INACTIVE.
 UNSATURATED FLOW WILL NOT BE ADDED TO ANY LAYER-- SOME WATER MAY FLOW PAST LOWEST LAYER
 ***WARNING***NUZTOP IS 3 AND ALL LAYERS  IN ROW           40  AND COLUMN           76  ARE INACTIVE.
 UNSATURATED FLOW WILL NOT BE ADDED TO ANY LAYER-- SOME WATER MAY FLOW PAST LOWEST LAYER
                                                   Max.-Head-Change                         Max.-Flux-Residual
  Residual-Control   Outer-Iter.   Inner-Iter.     Column Row Layer    Maximum-Head-Change  Column Row Layer    Maximum-Flux-Residual          L2-NORM 
          0                 1           6            68   48     1       0.6323698024E+00      46   42    1         0.3127258959E+02      0.2358017468E+03
          0                 2           5            68   16     1       0.7735880138E+00      68   16    1         0.2495236073E+02      0.6334187411E+02
          0                 3           2            64   38     1       0.7453108118E-02      64   38    1         0.1050723476E+02      0.2308190095E+02
          0                 4           2            63   38     1       0.7542472496E-02      63   38    1         0.1065429417E+02      0.1677691088E+02
          0                 5           2            64   38     1       0.3683446917E-02      64   38    1         0.5212884972E+01      0.7398153676E+01
          0                 6           2            64   38     1       0.1134949062E-02      64   38    1         0.1611717859E+01      0.2453336908E+01
          0                 7           1            64   38     1       0.2595088613E-03      64   38    1         0.3694028945E+00      0.8873525846E+00

    ------------------------------------------------
       NWT REQUIRED            7 OUTER ITERATIONS 
       AND A TOTAL OF         20 INNER ITERATIONS.
    ------------------------------------------------

 NO OUTPUT CONTROL FOR STRESS PERIOD    7   TIME STEP   21
 ***WARNING***NUZTOP IS 3 AND ALL LAYERS  IN ROW           39  AND COLUMN           76  ARE INACTIVE.
 UNSATURATED FLOW WILL NOT BE ADDED TO ANY LAYER-- SOME WATER MAY FLOW PAST LOWEST LAYER
 ***WARNING***NUZTOP IS 3 AND ALL LAYERS  IN ROW           40  AND COLUMN           76  ARE INACTIVE.
 UNSATURATED FLOW WILL NOT BE ADDED TO ANY LAYER-- SOME WATER MAY FLOW PAST LOWEST LAYER
                                                   Max.-Head-Change                         Max.-Flux-Residual
  Residual-Control   Outer-Iter.   Inner-Iter.     Column Row Layer    Maximum-Head-Change  Column Row Layer    Maximum-Flux-Residual          L2-NORM 
          0                 1           5            69   47     1       0.2096649752E+01      46   42    1         0.3657826512E+02      0.2420163446E+03
          0                 2           5            28   33     1       0.6120626173E+00      28   33    1         0.9152242406E+01      0.4725135715E+02
          0                 3           2            27   33     1       0.6556938964E-02      64   38    1        -0.4334363794E+01      0.1803771929E+02
          0                 4           2            64   38     1      -0.2569964493E-02      64   38    1        -0.3623428251E+01      0.8817496406E+01
          0                 5           1            64   38     1      -0.9738314141E-03      64   38    1        -0.1381290919E+01      0.3699002113E+01

    ------------------------------------------------
       NWT REQUIRED            5 OUTER ITERATIONS 
       AND A TOTAL OF         15 INNER ITERATIONS.
    ------------------------------------------------

 NO OUTPUT CONTROL FOR STRESS PERIOD    7   TIME STEP   22
 ***WARNING***NUZTOP IS 3 AND ALL LAYERS  IN ROW           39  AND COLUMN           76  ARE INACTIVE.
 UNSATURATED FLOW WILL NOT BE ADDED TO ANY LAYER-- SOME WATER MAY FLOW PAST LOWEST LAYER
 ***WARNING***NUZTOP IS 3 AND ALL LAYERS  IN ROW           40  AND COLUMN           76  ARE INACTIVE.
 UNSATURATED FLOW WILL NOT BE ADDED TO ANY LAYER-- SOME WATER MAY FLOW PAST LOWEST LAYER
                                                   Max.-Head-Change                         Max.-Flux-Residual
  Residual-Control   Outer-Iter.   Inner-Iter.     Column Row Layer    Maximum-Head-Change  Column Row Layer    Maximum-Flux-Residual          L2-NORM 
          0                 1           6            68   48     1      -0.7297539148E+00      46   42    1         0.3145213095E+02      0.2302505505E+03
          0                 2           5            65   49     1       0.5527465981E+00      63   38    1        -0.1357240047E+02      0.5106360208E+02
          0                 3           2            64   38     1      -0.7856481530E-02      64   38    1        -0.1107661324E+02      0.2356028711E+02
          0                 4           2            63   38     1      -0.9032440610E-02      63   38    1        -0.1276481691E+02      0.1935529209E+02
          0                 5           2            64   38     1      -0.3891379992E-02      64   38    1        -0.5513189443E+01      0.7582073314E+01
          0                 6           2            64   38     1      -0.1083698463E-02      64   38    1        -0.1540323449E+01      0.2380731259E+01
          0                 7           1             5   50     1      -0.2417907135E-03      64   38    1        -0.3296674857E+00      0.8806129011E+00

    ------------------------------------------------
       NWT REQUIRED            7 OUTER ITERATIONS 
       AND A TOTAL OF         20 INNER ITERATIONS.
    ------------------------------------------------

 NO OUTPUT CONTROL FOR STRESS PERIOD    7   TIME STEP   23
 ***WARNING***NUZTOP IS 3 AND ALL LAYERS  IN ROW           39  AND COLUMN           76  ARE INACTIVE.
 UNSATURATED FLOW WILL NOT BE ADDED TO ANY LAYER-- SOME WATER MAY FLOW PAST LOWEST LAYER
 ***WARNING***NUZTOP IS 3 AND ALL LAYERS  IN ROW           40  AND COLUMN           76  ARE INACTIVE.
 UNSATURATED FLOW WILL NOT BE ADDED TO ANY LAYER-- SOME WATER MAY FLOW PAST LOWEST LAYER
                                                   Max.-Head-Change                         Max.-Flux-Residual
  Residual-Control   Outer-Iter.   Inner-Iter.     Column Row Layer    Maximum-Head-Change  Column Row Layer    Maximum-Flux-Residual          L2-NORM 
          0                 1           6            40   65     1       0.1655213544E+01      40   65    1         0.2707805250E+02      0.2181259614E+03
          0                 2           2            63   38     1       0.8076714638E-02      63   38    1         0.1144408337E+02      0.4929708783E+02
          0                 3           2            64   38     1       0.6524831609E-02      64   38    1         0.9197864029E+01      0.2174260769E+02
          0                 4           2            63   38     1       0.7100283599E-02      63   38    1         0.1003075696E+02      0.1590263943E+02
          0                 5           2            64   38     1       0.2996588141E-02      64   38    1         0.4244762659E+01      0.6184765073E+01
          0                 6           1            64   38     1       0.8125052548E-03      64   38    1         0.1154582878E+01      0.2073261192E+01

    ------------------------------------------------
       NWT REQUIRED            6 OUTER ITERATIONS 
       AND A TOTAL OF         15 INNER ITERATIONS.
    ------------------------------------------------

 NO OUTPUT CONTROL FOR STRESS PERIOD    7   TIME STEP   24
 ***WARNING***NUZTOP IS 3 AND ALL LAYERS  IN ROW           39  AND COLUMN           76  ARE INACTIVE.
 UNSATURATED FLOW WILL NOT BE ADDED TO ANY LAYER-- SOME WATER MAY FLOW PAST LOWEST LAYER
 ***WARNING***NUZTOP IS 3 AND ALL LAYERS  IN ROW           40  AND COLUMN           76  ARE INACTIVE.
 UNSATURATED FLOW WILL NOT BE ADDED TO ANY LAYER-- SOME WATER MAY FLOW PAST LOWEST LAYER
                                                   Max.-Head-Change                         Max.-Flux-Residual
  Residual-Control   Outer-Iter.   Inner-Iter.     Column Row Layer    Maximum-Head-Change  Column Row Layer    Maximum-Flux-Residual          L2-NORM 
          0                 1           6            40   65     2       0.4628125309E+00      46   42    1         0.2988263517E+02      0.2270295167E+03
          0                 2           4            53   59     1       0.6245038140E+00      53   59    1         0.7912236346E+01      0.4654970195E+02
          0                 3           2             4   53     1      -0.3126410820E-02       4   53    1        -0.2034010252E+01      0.1715351305E+02
          0                 4           2            63   38     1       0.1753148356E-02      63   38    1         0.2478269807E+01      0.7965588511E+01
          0                 5           1             5   50     1      -0.8202810432E-03      64   38    1         0.1037388204E+01      0.3548173437E+01

    ------------------------------------------------
       NWT REQUIRED            5 OUTER ITERATIONS 
       AND A TOTAL OF         15 INNER ITERATIONS.
    ------------------------------------------------

 NO OUTPUT CONTROL FOR STRESS PERIOD    7   TIME STEP   25
 ***WARNING***NUZTOP IS 3 AND ALL LAYERS  IN ROW           39  AND COLUMN           76  ARE INACTIVE.
 UNSATURATED FLOW WILL NOT BE ADDED TO ANY LAYER-- SOME WATER MAY FLOW PAST LOWEST LAYER
 ***WARNING***NUZTOP IS 3 AND ALL LAYERS  IN ROW           40  AND COLUMN           76  ARE INACTIVE.
 UNSATURATED FLOW WILL NOT BE ADDED TO ANY LAYER-- SOME WATER MAY FLOW PAST LOWEST LAYER
                                                   Max.-Head-Change                         Max.-Flux-Residual
  Residual-Control   Outer-Iter.   Inner-Iter.     Column Row Layer    Maximum-Head-Change  Column Row Layer    Maximum-Flux-Residual          L2-NORM 
          0                 1           6            53   59     1       0.3827802677E+00      46   42    1         0.3158877760E+02      0.2350045258E+03
          0                 2           5            40   62     1       0.6443112636E+00      40   62    1         0.1181431461E+02      0.4849543983E+02
          0                 3           2            64   38     1       0.3133718030E-02      64   38    1         0.4418659161E+01      0.1815930195E+02
          0                 4           2            63   38     1       0.3542703202E-02      63   38    1         0.5006289258E+01      0.1007132717E+02
          0                 5           2            64   38     1       0.1492570778E-02      64   38    1         0.2115051003E+01      0.4211525589E+01
          0                 6           1             5   50     1      -0.4412010994E-03      64   38    1         0.5763505007E+00      0.1729691189E+01

    ------------------------------------------------
       NWT REQUIRED            6 OUTER ITERATIONS 
       AND A TOTAL OF         18 INNER ITERATIONS.
    ------------------------------------------------

 NO OUTPUT CONTROL FOR STRESS PERIOD    7   TIME STEP   26
 ***WARNING***NUZTOP IS 3 AND ALL LAYERS  IN ROW           39  AND COLUMN           76  ARE INACTIVE.
 UNSATURATED FLOW WILL NOT BE ADDED TO ANY LAYER-- SOME WATER MAY FLOW PAST LOWEST LAYER
 ***WARNING***NUZTOP IS 3 AND ALL LAYERS  IN ROW           40  AND COLUMN           76  ARE INACTIVE.
 UNSATURATED FLOW WILL NOT BE ADDED TO ANY LAYER-- SOME WATER MAY FLOW PAST LOWEST LAYER
                                                   Max.-Head-Change                         Max.-Flux-Residual
  Residual-Control   Outer-Iter.   Inner-Iter.     Column Row Layer    Maximum-Head-Change  Column Row Layer    Maximum-Flux-Residual          L2-NORM 
          0                 1           6            40   62     1       0.6743363368E+00      46   42    1         0.3449433501E+02      0.2432059670E+03
          0                 2           6            41   65     1       0.1439845429E+01      41   65    1         0.1760777937E+02      0.5108889423E+02
          0                 3           2            41   65     1      -0.4399864482E-02       4   49    1        -0.2020095811E+01      0.1732591645E+02
          0                 4           2             4   53     1      -0.1576302626E-02      64   38    1         0.1376384931E+01      0.7528340903E+01
          0                 5           1             5   50     1      -0.8133738843E-03      64   38    1         0.5588969507E+00      0.3411125842E+01

    ------------------------------------------------
       NWT REQUIRED            5 OUTER ITERATIONS 
       AND A TOTAL OF         17 INNER ITERATIONS.
    ------------------------------------------------

 NO OUTPUT CONTROL FOR STRESS PERIOD    7   TIME STEP   27
 ***WARNING***NUZTOP IS 3 AND ALL LAYERS  IN ROW           39  AND COLUMN           76  ARE INACTIVE.
 UNSATURATED FLOW WILL NOT BE ADDED TO ANY LAYER-- SOME WATER MAY FLOW PAST LOWEST LAYER
 ***WARNING***NUZTOP IS 3 AND ALL LAYERS  IN ROW           40  AND COLUMN           76  ARE INACTIVE.
 UNSATURATED FLOW WILL NOT BE ADDED TO ANY LAYER-- SOME WATER MAY FLOW PAST LOWEST LAYER
                                                   Max.-Head-Change                         Max.-Flux-Residual
  Residual-Control   Outer-Iter.   Inner-Iter.     Column Row Layer    Maximum-Head-Change  Column Row Layer    Maximum-Flux-Residual          L2-NORM 
          0                 1           6            62   31     1      -0.9118343084E+00      46   42    1         0.3238908977E+02      0.2395838952E+03
          0                 2           4            58   10     1       0.4985806375E+00      66   24    1        -0.1852435234E+02      0.5595494012E+02
          0                 3           3            58   10     2       0.1150166306E-01      64   38    1        -0.1044782942E+02      0.2342675403E+02
          0                 4           2            64   38     1      -0.6196397817E-02      64   38    1        -0.8735525268E+01      0.1458032345E+02
          0                 5           2            64   38     1      -0.2557301301E-02      64   38    1        -0.3624694475E+01      0.5636968314E+01
          0                 6           1            64   38     1      -0.6866156307E-03      64   38    1        -0.9763459421E+00      0.1997225934E+01

    ------------------------------------------------
       NWT REQUIRED            6 OUTER ITERATIONS 
       AND A TOTAL OF         18 INNER ITERATIONS.
    ------------------------------------------------

 NO OUTPUT CONTROL FOR STRESS PERIOD    7   TIME STEP   28
 ***WARNING***NUZTOP IS 3 AND ALL LAYERS  IN ROW           39  AND COLUMN           76  ARE INACTIVE.
 UNSATURATED FLOW WILL NOT BE ADDED TO ANY LAYER-- SOME WATER MAY FLOW PAST LOWEST LAYER
 ***WARNING***NUZTOP IS 3 AND ALL LAYERS  IN ROW           40  AND COLUMN           76  ARE INACTIVE.
 UNSATURATED FLOW WILL NOT BE ADDED TO ANY LAYER-- SOME WATER MAY FLOW PAST LOWEST LAYER
                                                   Max.-Head-Change                         Max.-Flux-Residual
  Residual-Control   Outer-Iter.   Inner-Iter.     Column Row Layer    Maximum-Head-Change  Column Row Layer    Maximum-Flux-Residual          L2-NORM 
          0                 1           7            68   48     1      -0.1431868483E+01      36   65    1         0.2366948408E+02      0.2228194531E+03
          0                 2           4            66   17     1       0.1085323191E+00      63   38    1        -0.2681893639E+02      0.6314501935E+02
          0                 3           3            64   38     1      -0.1322449571E-01      64   38    1        -0.1865808388E+02      0.3254095281E+02
          0                 4           3            64   38     1      -0.1232982000E-01      63   38    1        -0.1740649625E+02      0.2609525423E+02
          0                 5           2            64   38     1      -0.5262803293E-02      64   38    1        -0.7457931468E+01      0.9814212517E+01
          0                 6           2            64   38     1      -0.1440002446E-02      64   38    1        -0.2047100242E+01      0.2871694356E+01
          0                 7           1            64   38     1      -0.3043882307E-03      64   38    1        -0.4335570753E+00      0.9575561435E+00

    ------------------------------------------------
       NWT REQUIRED            7 OUTER ITERATIONS 
       AND A TOTAL OF         22 INNER ITERATIONS.
    ------------------------------------------------

 NO OUTPUT CONTROL FOR STRESS PERIOD    7   TIME STEP   29
 ***WARNING***NUZTOP IS 3 AND ALL LAYERS  IN ROW           39  AND COLUMN           76  ARE INACTIVE.
 UNSATURATED FLOW WILL NOT BE ADDED TO ANY LAYER-- SOME WATER MAY FLOW PAST LOWEST LAYER
 ***WARNING***NUZTOP IS 3 AND ALL LAYERS  IN ROW           40  AND COLUMN           76  ARE INACTIVE.
 UNSATURATED FLOW WILL NOT BE ADDED TO ANY LAYER-- SOME WATER MAY FLOW PAST LOWEST LAYER
                                                   Max.-Head-Change                         Max.-Flux-Residual
  Residual-Control   Outer-Iter.   Inner-Iter.     Column Row Layer    Maximum-Head-Change  Column Row Layer    Maximum-Flux-Residual          L2-NORM 
          0                 1           7            68   48     1      -0.3047243755E+01      36   65    1         0.1741322962E+02      0.2601012624E+03
          0                 2           6            69   47     1       0.1057454933E+01      69   47    1         0.8217912399E+03      0.2222776126E+04
          0                 3           3            69   47     1       0.4906999860E-01      64   38    1        -0.3881984049E+02      0.1180551512E+03
          0                 4           3            63   38     1      -0.3548085079E-01      63   38    1        -0.5016150561E+02      0.7040405767E+02
          0                 5           3            64   38     1      -0.1481877856E-01      64   38    1        -0.2100349703E+02      0.2596615324E+02
          0                 6           2            64   38     1      -0.4070798149E-02      64   38    1        -0.5788378191E+01      0.6782746685E+01
          0                 7           1            64   38     1      -0.8663708584E-03      64   38    1        -0.1234350221E+01      0.1600203484E+01

    ------------------------------------------------
       NWT REQUIRED            7 OUTER ITERATIONS 
       AND A TOTAL OF         25 INNER ITERATIONS.
    ------------------------------------------------

 NO OUTPUT CONTROL FOR STRESS PERIOD    7   TIME STEP   30
 ***WARNING***NUZTOP IS 3 AND ALL LAYERS  IN ROW           39  AND COLUMN           76  ARE INACTIVE.
 UNSATURATED FLOW WILL NOT BE ADDED TO ANY LAYER-- SOME WATER MAY FLOW PAST LOWEST LAYER
 ***WARNING***NUZTOP IS 3 AND ALL LAYERS  IN ROW           40  AND COLUMN           76  ARE INACTIVE.
 UNSATURATED FLOW WILL NOT BE ADDED TO ANY LAYER-- SOME WATER MAY FLOW PAST LOWEST LAYER
                                                   Max.-Head-Change                         Max.-Flux-Residual
  Residual-Control   Outer-Iter.   Inner-Iter.     Column Row Layer    Maximum-Head-Change  Column Row Layer    Maximum-Flux-Residual          L2-NORM 
          0                 1           6            68   49     1      -0.1403587934E+01      39   59    1        -0.3063147854E+02      0.2520508208E+03
          0                 2           6            40   65     1       0.5660148288E+00      40   65    1         0.7362213344E+03      0.1144146550E+04
          0                 3           4            40   65     1       0.2861644055E-01      40   65    1         0.3674305308E+02      0.5717490439E+02
          0                 4           2            24   51     1       0.2046844475E-01      63   38    1        -0.1613720929E+02      0.2389849659E+02
          0                 5           2            64   38     1      -0.4894125542E-02      64   38    1        -0.6935764758E+01      0.9201784019E+01
          0                 6           2            64   38     1      -0.1365397320E-02      64   38    1        -0.1941489988E+01      0.2775052547E+01
          0                 7           1            64   38     1      -0.2934820989E-03      64   38    1        -0.4181689950E+00      0.9573949272E+00

    ------------------------------------------------
       NWT REQUIRED            7 OUTER ITERATIONS 
       AND A TOTAL OF         23 INNER ITERATIONS.
    ------------------------------------------------

 NO OUTPUT CONTROL FOR STRESS PERIOD    7   TIME STEP   31



 STREAM LISTING     PERIOD      7   STEP       31

 LAYER ROW COL. STREAM  RCH.   FLOW INTO    STREAM     FLOW OUT OF   OVRLND.    DIRECT     STREAM      STREAM      STREAM     STREAM  STREAMBED   FLOW TO   CHNG. UNSAT. 
                SEG.NO.  NO.   STRM. RCH.    LOSS       STRM. RCH.   RUNOFF     PRECIP       ET         HEAD        DEPTH      WIDTH  CONDCTNC.   WAT. TAB.

   1   18   62     1     1    0.0000E+00 -7.3688E-01   1.6071E+00  8.702E-01  0.000E+00  0.000E+00  2.07300E+03  1.708E-04  3.000E+00  1.909E+03  0.000E+00  0.000E+00
   1   19   63     1     2    1.6071E+00 -4.2694E+01   4.5171E+01  8.702E-01  0.000E+00  0.000E+00  2.06300E+03  1.183E-03  3.000E+00  1.909E+03  0.000E+00  0.000E+00
   1   20   64     1     3    4.5171E+01 -7.1922E+01   1.1796E+02  8.702E-01  0.000E+00  0.000E+00  2.05400E+03  2.738E-03  3.000E+00  1.630E+03  0.000E+00  0.000E+00
   1   21   64     1     4    1.1796E+02 -7.5948E+01   1.9478E+02  8.702E-01  0.000E+00  0.000E+00  2.05100E+03  4.980E-03  3.000E+00  1.630E+03  0.000E+00  0.000E+00
   1   22   65     1     5    1.9478E+02 -9.2584E+00   2.0491E+02  8.702E-01  0.000E+00  0.000E+00  2.04800E+03  4.915E-03  3.000E+00  9.546E+02  0.000E+00  0.000E+00
   1   20   66     2     1    0.0000E+00 -4.2958E+01   4.2958E+01  0.000E+00  0.000E+00  0.000E+00  2.05300E+03  1.587E-03  3.000E+00  1.909E+03  0.000E+00  0.000E+00
   1   21   65     2     2    4.2958E+01  7.9444E+00   3.5013E+01  0.000E+00  0.000E+00  0.000E+00  2.05100E+03  2.286E-03  3.000E+00  1.630E+03  0.000E+00  0.000E+00
   1   22   65     2     3    3.5013E+01 -8.7352E+00   4.3749E+01  0.000E+00  0.000E+00  0.000E+00  2.04800E+03  1.673E-03  3.000E+00  6.750E+02  0.000E+00  0.000E+00
   1   22   65     3     1    2.4866E+02 -6.4291E+00   2.5509E+02  0.000E+00  0.000E+00  0.000E+00  2.04801E+03  5.089E-03  3.000E+00  6.750E+02  0.000E+00  0.000E+00
   1   23   65     3     2    2.5509E+02 -8.3934E+01   3.3902E+02  0.000E+00  0.000E+00  0.000E+00  2.04501E+03  9.010E-03  3.000E+00  1.630E+03  0.000E+00  0.000E+00
   1   24   66     3     3    3.3902E+02 -1.4422E+01   3.5344E+02  0.000E+00  0.000E+00  0.000E+00  2.04534E+03  3.441E-01  3.000E+00  1.909E+03  0.000E+00  0.000E+00
   1   25   67     3     4    3.5344E+02  1.7043E+01   3.3640E+02  0.000E+00  0.000E+00  0.000E+00  2.04501E+03  1.034E-02  3.000E+00  1.909E+03  0.000E+00  0.000E+00
   1   26   68     3     5    3.3640E+02 -9.1349E+00   3.4554E+02  0.000E+00  0.000E+00  0.000E+00  2.04201E+03  8.979E-03  3.000E+00  1.630E+03  0.000E+00  0.000E+00
   1   27   68     3     6    3.4554E+02  7.8617E+01   2.6692E+02  0.000E+00  0.000E+00  0.000E+00  2.04101E+03  7.455E-03  3.000E+00  1.630E+03  0.000E+00  0.000E+00
   1   28   69     3     7    2.6692E+02  9.7776E+01   1.6914E+02  0.000E+00  0.000E+00  0.000E+00  2.03600E+03  4.940E-03  3.000E+00  1.630E+03  9.792E+01 -1.463E-01
   1   29   69     3     8    1.6914E+02  3.5518E+01   1.3363E+02  0.000E+00  0.000E+00  0.000E+00  2.02900E+03  3.662E-03  3.000E+00  1.350E+03  0.000E+00  0.000E+00
   1   30   69     3     9    1.3363E+02  1.2323E+01   1.2130E+02  0.000E+00  0.000E+00  0.000E+00  2.02300E+03  3.170E-03  3.000E+00  1.630E+03  0.000E+00  0.000E+00
   1   31   70     3    10    1.2130E+02 -1.0506E+02   2.2636E+02  0.000E+00  0.000E+00  0.000E+00  2.01100E+03  3.818E-03  3.000E+00  1.630E+03  0.000E+00  0.000E+00
   1   32   70     3    11    2.2636E+02 -1.9944E+02   4.2580E+02  0.000E+00  0.000E+00  0.000E+00  2.00501E+03  6.711E-03  3.000E+00  1.350E+03  0.000E+00  0.000E+00
   1   33   70     3    12    4.2580E+02  1.9569E+01   4.0623E+02  0.000E+00  0.000E+00  0.000E+00  2.00301E+03  6.340E-03  3.000E+00  1.630E+03  0.000E+00  0.000E+00
   1   34   69     3    13    4.0623E+02 -2.0394E+01   4.2663E+02  0.000E+00  0.000E+00  0.000E+00  1.98601E+03  5.533E-03  3.000E+00  1.630E+03  0.000E+00  0.000E+00
   1   35   69     3    14    4.2663E+02 -3.4620E+01   4.6125E+02  0.000E+00  0.000E+00  0.000E+00  1.97301E+03  6.230E-03  3.000E+00  1.350E+03  0.000E+00  0.000E+00
   1   36   69     3    15    4.6125E+02  1.0499E+01   4.5075E+02  0.000E+00  0.000E+00  0.000E+00  1.96701E+03  6.939E-03  3.000E+00  1.350E+03  0.000E+00  0.000E+00
   1   37   69     3    16    4.5075E+02  1.4757E+01   4.3599E+02  0.000E+00  0.000E+00  0.000E+00  1.95901E+03  6.823E-03  3.000E+00  1.350E+03  0.000E+00  0.000E+00
   1   38   69     3    17    4.3599E+02  1.8874E+01   4.1712E+02  0.000E+00  0.000E+00  0.000E+00  1.95301E+03  7.212E-03  3.000E+00  1.630E+03  0.000E+00  0.000E+00
   1   39   70     3    18    4.1712E+02 -3.6208E+00   4.2074E+02  0.000E+00  0.000E+00  0.000E+00  1.94601E+03  6.389E-03  3.000E+00  9.546E+02  0.000E+00  0.000E+00
   1   25   49     4     1    0.0000E+00 -1.5695E+02   1.5695E+02  0.000E+00  0.000E+00  0.000E+00  2.03500E+03  2.371E-03  3.000E+00  1.909E+03  0.000E+00  0.000E+00
   1   26   50     4     2    1.5695E+02 -9.3720E+01   2.5067E+02  0.000E+00  0.000E+00  0.000E+00  2.02600E+03  4.561E-03  3.000E+00  1.909E+03  0.000E+00  0.000E+00
   1   27   51     4     3    2.5067E+02 -7.5478E+01   3.2615E+02  0.000E+00  0.000E+00  0.000E+00  2.01901E+03  5.842E-03  3.000E+00  1.630E+03  0.000E+00  0.000E+00
   1   28   51     4     4    3.2615E+02 -8.2481E+01   4.0863E+02  0.000E+00  0.000E+00  0.000E+00  2.01401E+03  7.134E-03  3.000E+00  1.630E+03  0.000E+00  0.000E+00
   1   29   52     4     5    4.0863E+02 -4.6204E+01   4.5483E+02  0.000E+00  0.000E+00  0.000E+00  2.00901E+03  7.858E-03  3.000E+00  1.630E+03  0.000E+00  0.000E+00
   1   30   52     4     6    4.5483E+02 -1.2558E+01   4.6739E+02  0.000E+00  0.000E+00  0.000E+00  2.00401E+03  7.726E-03  3.000E+00  1.350E+03  0.000E+00  0.000E+00
   1   31   52     4     7    4.6739E+02 -1.9284E+01   4.8668E+02  0.000E+00  0.000E+00  0.000E+00  1.99901E+03  8.775E-03  3.000E+00  1.350E+03  0.000E+00  0.000E+00
   1   32   52     4     8    4.8668E+02  2.2230E+00   4.8445E+02  0.000E+00  0.000E+00  0.000E+00  1.99701E+03  9.015E-03  3.000E+00  1.630E+03  0.000E+00  0.000E+00
   1   33   53     4     9    4.8445E+02  1.1137E+01   4.7332E+02  0.000E+00  0.000E+00  0.000E+00  1.99101E+03  8.769E-03  3.000E+00  1.909E+03  0.000E+00  0.000E+00
   1   34   54     4    10    4.7332E+02  2.6688E+01   4.4663E+02  0.000E+00  0.000E+00  0.000E+00  1.98701E+03  8.835E-03  3.000E+00  1.909E+03  0.000E+00  0.000E+00
   1   35   55     4    11    4.4663E+02  3.9399E+01   4.0723E+02  0.000E+00  0.000E+00  0.000E+00  1.98201E+03  7.586E-03  3.000E+00  1.630E+03  0.000E+00  0.000E+00
   1   36   55     4    12    4.0723E+02 -5.8863E+01   4.6609E+02  0.000E+00  0.000E+00  0.000E+00  1.97601E+03  6.759E-03  3.000E+00  6.750E+02  0.000E+00  0.000E+00
   1   35   37     5     1    4.6937E+03 -6.1568E+01   4.7552E+03  0.000E+00  0.000E+00  0.000E+00  2.05402E+03  2.443E-02  3.000E+00  9.546E+02  0.000E+00  0.000E+00
   1   34   38     5     2    4.7552E+03 -1.2163E+02   4.8769E+03  0.000E+00  0.000E+00  0.000E+00  2.04603E+03  3.042E-02  3.000E+00  1.909E+03  0.000E+00  0.000E+00
   1   33   39     5     3    4.8769E+03 -2.3919E+02   5.1161E+03  0.000E+00  0.000E+00  0.000E+00  2.03804E+03  3.696E-02  3.000E+00  1.909E+03  0.000E+00  0.000E+00
   1   32   40     5     4    5.1161E+03  1.0311E+02   5.0129E+03  0.000E+00  0.000E+00  0.000E+00  2.03704E+03  3.681E-02  3.000E+00  1.630E+03  0.000E+00  0.000E+00
   1   32   41     5     5    5.0129E+03 -1.3769E+02   5.1506E+03  0.000E+00  0.000E+00  0.000E+00  2.03003E+03  3.087E-02  3.000E+00  1.350E+03  0.000E+00  0.000E+00
   1   32   42     5     6    5.1506E+03 -1.7118E+02   5.3218E+03  0.000E+00  0.000E+00  0.000E+00  2.02504E+03  3.694E-02  3.000E+00  1.350E+03  0.000E+00  0.000E+00
   1   32   43     5     7    5.3218E+03 -5.9784E+01   5.3816E+03  0.000E+00  0.000E+00  0.000E+00  2.02304E+03  4.148E-02  3.000E+00  1.630E+03  0.000E+00  0.000E+00
   1   33   44     5     8    5.3816E+03 -1.4415E+02   5.5257E+03  0.000E+00  0.000E+00  0.000E+00  2.01904E+03  4.200E-02  3.000E+00  1.909E+03  0.000E+00  0.000E+00
   1   34   45     5     9    5.5257E+03 -2.0317E+01   5.5461E+03  0.000E+00  0.000E+00  0.000E+00  2.01604E+03  3.883E-02  3.000E+00  1.630E+03  0.000E+00  0.000E+00
   1   34   46     5    10    5.5461E+03 -1.0275E+02   5.6488E+03  0.000E+00  0.000E+00  0.000E+00  2.01104E+03  3.566E-02  3.000E+00  1.350E+03  0.000E+00  0.000E+00
   1   34   47     5    11    5.6488E+03  7.5437E+00   5.6413E+03  0.000E+00  0.000E+00  0.000E+00  2.00703E+03  2.821E-02  3.000E+00  6.750E+02  0.000E+00  0.000E+00
   1   34   47     6     1    5.6570E+03  6.1193E+00   5.6509E+03  0.000E+00  0.000E+00  0.000E+00  2.00703E+03  2.609E-02  3.000E+00  6.750E+02  0.000E+00  0.000E+00
   1   34   48     6     2    5.6509E+03 -1.2669E+02   5.7775E+03  0.000E+00  0.000E+00  0.000E+00  2.00103E+03  3.421E-02  3.000E+00  1.630E+03  0.000E+00  0.000E+00
   1   35   49     6     3    5.7775E+03 -2.7331E+02   6.0509E+03  0.000E+00  0.000E+00  0.000E+00  1.99404E+03  3.672E-02  3.000E+00  1.630E+03  0.000E+00  0.000E+00
   1   35   50     6     4    6.0509E+03 -1.9834E+02   6.2492E+03  0.000E+00  0.000E+00  0.000E+00  1.99005E+03  4.501E-02  3.000E+00  1.350E+03  0.000E+00  0.000E+00
   1   35   51     6     5    6.2492E+03  3.1280E+01   6.2179E+03  0.000E+00  0.000E+00  0.000E+00  1.98905E+03  4.545E-02  3.000E+00  1.630E+03  0.000E+00  0.000E+00
   1   36   52     6     6    6.2179E+03 -1.3250E+02   6.3504E+03  0.000E+00  0.000E+00  0.000E+00  1.98404E+03  4.044E-02  3.000E+00  1.630E+03  0.000E+00  0.000E+00
   1   36   53     6     7    6.3504E+03 -2.3276E+02   6.5832E+03  0.000E+00  0.000E+00  0.000E+00  1.98005E+03  5.248E-02  3.000E+00  1.630E+03  0.000E+00  0.000E+00
   1   37   54     6     8    6.5832E+03 -4.9137E+01   6.6323E+03  0.000E+00  0.000E+00  0.000E+00  1.98006E+03  5.574E-02  3.000E+00  1.909E+03  0.000E+00  0.000E+00
   1   36   55     6     9    6.6323E+03 -4.9093E+01   6.6814E+03  0.000E+00  0.000E+00  0.000E+00  1.97604E+03  4.254E-02  3.000E+00  9.546E+02  0.000E+00  0.000E+00
   1   36   34     7     1    1.9381E+03 -4.9900E+01   1.9880E+03  0.000E+00  0.000E+00  0.000E+00  2.07701E+03  1.311E-02  3.000E+00  9.546E+02  0.000E+00  0.000E+00
   1   35   35     7     2    1.9880E+03 -9.8070E+01   2.0861E+03  0.000E+00  0.000E+00  0.000E+00  2.06702E+03  1.765E-02  3.000E+00  1.630E+03  0.000E+00  0.000E+00
   1   35   36     7     3    2.0861E+03  2.4976E+01   2.0611E+03  0.000E+00  0.000E+00  0.000E+00  2.06202E+03  1.760E-02  3.000E+00  1.350E+03  0.000E+00  0.000E+00
   1   35   37     7     4    2.0611E+03 -5.0923E+01   2.1120E+03  0.000E+00  0.000E+00  0.000E+00  2.05401E+03  1.348E-02  3.000E+00  6.750E+02  0.000E+00  0.000E+00
   1   52   49     8     1    0.0000E+00 -2.0814E+02   2.0814E+02  0.000E+00  0.000E+00  0.000E+00  2.12100E+03  2.895E-03  3.000E+00  1.909E+03  0.000E+00  0.000E+00
   1   51   48     8     2    2.0814E+02 -1.9769E+02   4.0583E+02  0.000E+00  0.000E+00  0.000E+00  2.11701E+03  8.840E-03  3.000E+00  1.909E+03  0.000E+00  0.000E+00
   1   50   47     8     3    4.0583E+02  9.7776E+01   3.0805E+02  0.000E+00  0.000E+00  0.000E+00  2.11701E+03  7.496E-03  3.000E+00  1.630E+03  9.775E+01  2.650E-02
   1   49   47     8     4    3.0805E+02 -2.0749E+02   5.1555E+02  0.000E+00  0.000E+00  0.000E+00  2.10901E+03  7.638E-03  3.000E+00  1.630E+03  0.000E+00  0.000E+00
   1   48   46     8     5    5.1555E+02  1.4630E+01   5.0092E+02  0.000E+00  0.000E+00  0.000E+00  2.10701E+03  1.141E-02  3.000E+00  1.630E+03  0.000E+00  0.000E+00
   1   47   46     8     6    5.0092E+02  8.8480E+01   4.1244E+02  0.000E+00  0.000E+00  0.000E+00  2.10501E+03  1.011E-02  3.000E+00  1.350E+03  0.000E+00  0.000E+00
   1   46   46     8     7    4.1244E+02  8.1000E+01   3.3144E+02  0.000E+00  0.000E+00  0.000E+00  2.10301E+03  7.916E-03  3.000E+00  1.350E+03  8.107E+01 -6.625E-02
   1   45   46     8     8    3.3144E+02  8.1000E+01   2.5044E+02  0.000E+00  0.000E+00  0.000E+00  2.09901E+03  5.549E-03  3.000E+00  1.350E+03  8.114E+01 -1.384E-01
   1   44   46     8     9    2.5044E+02  8.1000E+01   1.6944E+02  0.000E+00  0.000E+00  0.000E+00  2.09100E+03  3.975E-03  3.000E+00  1.350E+03  8.115E+01 -1.458E-01
   1   43   46     8    10    1.6944E+02  1.0094E+02   6.8499E+01  0.000E+00  0.000E+00  0.000E+00  2.08000E+03  2.827E-03  3.000E+00  1.350E+03  0.000E+00  0.000E+00
   1   42   46     8    11    6.8499E+01  6.8499E+01   0.0000E+00  0.000E+00  0.000E+00  0.000E+00  2.07200E+03  4.758E-04  3.000E+00  1.630E+03  0.000E+00  0.000E+00
   1   41   45     8    12    0.0000E+00 -1.0842E+02   1.0842E+02  0.000E+00  0.000E+00  0.000E+00  2.06000E+03  1.897E-03  3.000E+00  1.630E+03  0.000E+00  0.000E+00
   1   40   45     8    13    1.0842E+02  8.1000E+01   2.7422E+01  0.000E+00  0.000E+00  0.000E+00  2.05400E+03  2.213E-03  3.000E+00  1.350E+03  8.098E+01  1.923E-02
   1   39   45     8    14    2.7422E+01  2.7422E+01   0.0000E+00  0.000E+00  0.000E+00  0.000E+00  2.04600E+03  2.637E-04  3.000E+00  1.350E+03  2.822E+01 -7.983E-01
   1   38   45     8    15    0.0000E+00  0.0000E+00   0.0000E+00  0.000E+00  0.000E+00  0.000E+00  2.03500E+03  0.000E+00  3.000E+00  1.350E+03  0.000E+00  0.000E+00
   1   37   45     8    16    0.0000E+00  0.0000E+00   0.0000E+00  0.000E+00  0.000E+00  0.000E+00  2.02700E+03  0.000E+00  3.000E+00  1.630E+03  0.000E+00  0.000E+00
   1   36   46     8    17    0.0000E+00  0.0000E+00   0.0000E+00  0.000E+00  0.000E+00  0.000E+00  2.02100E+03  0.000E+00  3.000E+00  1.630E+03  0.000E+00  0.000E+00
   1   35   46     8    18    0.0000E+00  0.0000E+00   0.0000E+00  0.000E+00  0.000E+00  0.000E+00  2.01400E+03  0.000E+00  3.000E+00  1.630E+03  0.000E+00  0.000E+00
   1   34   47     8    19    0.0000E+00 -1.5718E+01   1.5718E+01  0.000E+00  0.000E+00  0.000E+00  2.00700E+03  5.641E-04  3.000E+00  9.546E+02  0.000E+00  0.000E+00
   1   37   26     9     1    0.0000E+00  0.0000E+00   0.0000E+00  0.000E+00  0.000E+00  0.000E+00  2.14700E+03  0.000E+00  3.000E+00  1.350E+03  0.000E+00  0.000E+00
   1   37   27     9     2    0.0000E+00 -6.6328E+01   6.6328E+01  0.000E+00  0.000E+00  0.000E+00  2.13400E+03  1.257E-03  3.000E+00  1.350E+03  0.000E+00  0.000E+00
   1   37   28     9     3    6.6328E+01 -1.3655E+02   2.0288E+02  0.000E+00  0.000E+00  0.000E+00  2.12500E+03  3.224E-03  3.000E+00  1.630E+03  0.000E+00  0.000E+00
   1   36   29     9     4    2.0288E+02  9.2135E+00   1.9367E+02  0.000E+00  0.000E+00  0.000E+00  2.11500E+03  4.130E-03  3.000E+00  1.630E+03  0.000E+00  0.000E+00
   1   36   30     9     5    1.9367E+02 -7.8777E+01   2.7245E+02  0.000E+00  0.000E+00  0.000E+00  2.10700E+03  4.375E-03  3.000E+00  1.350E+03  0.000E+00  0.000E+00
   1   36   31     9     6    2.7245E+02 -1.9437E+02   4.6682E+02  0.000E+00  0.000E+00  0.000E+00  2.09801E+03  5.876E-03  3.000E+00  1.350E+03  0.000E+00  0.000E+00
   1   36   32     9     7    4.6682E+02 -1.4069E+02   6.0751E+02  0.000E+00  0.000E+00  0.000E+00  2.09101E+03  7.654E-03  3.000E+00  1.350E+03  0.000E+00  0.000E+00
   1   36   33     9     8    6.0751E+02 -1.2992E+02   7.3743E+02  0.000E+00  0.000E+00  0.000E+00  2.08401E+03  8.758E-03  3.000E+00  1.350E+03  0.000E+00  0.000E+00
   1   36   34     9     9    7.3743E+02 -3.9268E+01   7.7670E+02  0.000E+00  0.000E+00  0.000E+00  2.07701E+03  7.206E-03  3.000E+00  6.750E+02  0.000E+00  0.000E+00
   1   58   37    10     1    0.0000E+00 -1.1685E+02   1.1685E+02  0.000E+00  0.000E+00  0.000E+00  2.15000E+03  2.944E-03  3.000E+00  1.350E+03  0.000E+00  0.000E+00
   1   57   37    10     2    1.1685E+02 -9.0903E+01   2.0776E+02  0.000E+00  0.000E+00  0.000E+00  2.14700E+03  4.862E-03  3.000E+00  1.630E+03  0.000E+00  0.000E+00
   1   56   38    10     3    2.0776E+02 -1.0483E+01   2.1824E+02  0.000E+00  0.000E+00  0.000E+00  2.14301E+03  5.308E-03  3.000E+00  1.630E+03  0.000E+00  0.000E+00
   1   55   38    10     4    2.1824E+02 -1.6475E+02   3.8299E+02  0.000E+00  0.000E+00  0.000E+00  2.13801E+03  6.391E-03  3.000E+00  1.350E+03  0.000E+00  0.000E+00
   1   54   38    10     5    3.8299E+02 -1.0760E+02   4.9059E+02  0.000E+00  0.000E+00  0.000E+00  2.13501E+03  8.717E-03  3.000E+00  1.350E+03  0.000E+00  0.000E+00
   1   53   38    10     6    4.9059E+02 -9.9045E+01   5.8963E+02  0.000E+00  0.000E+00  0.000E+00  2.13201E+03  9.901E-03  3.000E+00  1.350E+03  0.000E+00  0.000E+00
   1   52   38    10     7    5.8963E+02 -1.6067E+02   7.5030E+02  0.000E+00  0.000E+00  0.000E+00  2.12901E+03  1.346E-02  3.000E+00  1.630E+03  0.000E+00  0.000E+00
   1   51   39    10     8    7.5030E+02  1.6216E+01   7.3409E+02  0.000E+00  0.000E+00  0.000E+00  2.12801E+03  1.432E-02  3.000E+00  1.630E+03  0.000E+00  0.000E+00
   1   50   39    10     9    7.3409E+02 -7.2117E+01   8.0620E+02  0.000E+00  0.000E+00  0.000E+00  2.12501E+03  1.238E-02  3.000E+00  1.630E+03  0.000E+00  0.000E+00
   1   49   38    10    10    8.0620E+02 -1.4240E+02   9.4861E+02  0.000E+00  0.000E+00  0.000E+00  2.12101E+03  1.403E-02  3.000E+00  1.909E+03  0.000E+00  0.000E+00
   1   48   37    10    11    9.4861E+02  2.8784E+01   9.1982E+02  0.000E+00  0.000E+00  0.000E+00  2.11801E+03  1.240E-02  3.000E+00  1.909E+03  0.000E+00  0.000E+00
   1   47   36    10    12    9.1982E+02 -3.2771E+02   1.2475E+03  0.000E+00  0.000E+00  0.000E+00  2.10901E+03  1.292E-02  3.000E+00  1.630E+03  0.000E+00  0.000E+00
   1   46   36    10    13    1.2475E+03 -1.2235E+02   1.3699E+03  0.000E+00  0.000E+00  0.000E+00  2.10602E+03  1.608E-02  3.000E+00  1.350E+03  0.000E+00  0.000E+00
   1   45   36    10    14    1.3699E+03 -1.5765E+02   1.5275E+03  0.000E+00  0.000E+00  0.000E+00  2.10202E+03  1.709E-02  3.000E+00  1.350E+03  0.000E+00  0.000E+00
   1   44   36    10    15    1.5275E+03 -8.5626E+01   1.6132E+03  0.000E+00  0.000E+00  0.000E+00  2.09902E+03  1.878E-02  3.000E+00  1.350E+03  0.000E+00  0.000E+00
   1   43   36    10    16    1.6132E+03  1.0254E+01   1.6029E+03  0.000E+00  0.000E+00  0.000E+00  2.09602E+03  1.785E-02  3.000E+00  1.630E+03  0.000E+00  0.000E+00
   1   42   37    10    17    1.6029E+03  9.7776E+01   1.5051E+03  0.000E+00  0.000E+00  0.000E+00  2.09001E+03  1.472E-02  3.000E+00  1.630E+03  9.760E+01  1.784E-01
   1   41   37    10    18    1.5051E+03 -2.2136E+02   1.7265E+03  0.000E+00  0.000E+00  0.000E+00  2.08001E+03  1.424E-02  3.000E+00  1.350E+03  0.000E+00  0.000E+00
   1   40   37    10    19    1.7265E+03 -3.1937E+02   2.0459E+03  0.000E+00  0.000E+00  0.000E+00  2.07402E+03  1.964E-02  3.000E+00  1.630E+03  0.000E+00  0.000E+00
   1   39   38    10    20    2.0459E+03 -1.9889E+01   2.0658E+03  0.000E+00  0.000E+00  0.000E+00  2.07102E+03  2.231E-02  3.000E+00  1.630E+03  0.000E+00  0.000E+00
   1   38   38    10    21    2.0658E+03  2.7603E+01   2.0381E+03  0.000E+00  0.000E+00  0.000E+00  2.06702E+03  2.002E-02  3.000E+00  1.630E+03  0.000E+00  0.000E+00
   1   37   37    10    22    2.0381E+03 -2.9064E+02   2.3288E+03  0.000E+00  0.000E+00  0.000E+00  2.06102E+03  2.078E-02  3.000E+00  1.630E+03  0.000E+00  0.000E+00
   1   36   37    10    23    2.3288E+03 -2.0430E+02   2.5331E+03  0.000E+00  0.000E+00  0.000E+00  2.05702E+03  2.331E-02  3.000E+00  1.350E+03  0.000E+00  0.000E+00
   1   35   37    10    24    2.5331E+03 -4.8518E+01   2.5816E+03  0.000E+00  0.000E+00  0.000E+00  2.05402E+03  1.704E-02  3.000E+00  6.750E+02  0.000E+00  0.000E+00
   1   36   55    11     1    7.1475E+03 -3.8974E+01   7.1865E+03  0.000E+00  0.000E+00  0.000E+00  1.97604E+03  3.622E-02  3.000E+00  6.750E+02  0.000E+00  0.000E+00
   1   36   56    11     2    7.1865E+03 -5.6014E+01   7.2425E+03  0.000E+00  0.000E+00  0.000E+00  1.97506E+03  6.109E-02  3.000E+00  1.630E+03  0.000E+00  0.000E+00
   1   37   57    11     3    7.2425E+03 -1.3631E+02   7.3788E+03  0.000E+00  0.000E+00  0.000E+00  1.97306E+03  6.157E-02  3.000E+00  1.630E+03  0.000E+00  0.000E+00
   1   37   58    11     4    7.3788E+03 -9.1858E+01   7.4706E+03  0.000E+00  0.000E+00  0.000E+00  1.97208E+03  8.167E-02  3.000E+00  1.350E+03  0.000E+00  0.000E+00
   1   37   59    11     5    7.4706E+03  6.4980E+00   7.4641E+03  0.000E+00  0.000E+00  0.000E+00  1.97207E+03  6.656E-02  3.000E+00  1.350E+03  0.000E+00  0.000E+00
   1   37   60    11     6    7.4641E+03 -1.3996E+01   7.4781E+03  0.000E+00  0.000E+00  0.000E+00  1.97005E+03  5.352E-02  3.000E+00  1.630E+03  0.000E+00  0.000E+00
   1   38   61    11     7    7.4781E+03 -9.3318E+01   7.5715E+03  0.000E+00  0.000E+00  0.000E+00  1.96705E+03  4.859E-02  3.000E+00  1.630E+03  0.000E+00  0.000E+00
   1   38   62    11     8    7.5715E+03 -9.5518E+01   7.6670E+03  0.000E+00  0.000E+00  0.000E+00  1.96304E+03  4.445E-02  3.000E+00  6.750E+02  0.000E+00  0.000E+00
   1   51   11    12     1    0.0000E+00 -4.7496E+02   4.7496E+02  0.000E+00  0.000E+00  0.000E+00  2.38700E+03  4.545E-03  3.000E+00  1.909E+03  0.000E+00  0.000E+00
   1   50   12    12     2    4.7496E+02 -5.2170E+01   5.2713E+02  0.000E+00  0.000E+00  0.000E+00  2.37501E+03  6.782E-03  3.000E+00  1.630E+03  0.000E+00  0.000E+00
   1   49   12    12     3    5.2713E+02 -3.7263E+02   8.9975E+02  0.000E+00  0.000E+00  0.000E+00  2.36501E+03  8.761E-03  3.000E+00  1.630E+03  0.000E+00  0.000E+00
   1   48   13    12     4    8.9975E+02 -1.6561E+02   1.0654E+03  0.000E+00  0.000E+00  0.000E+00  2.35601E+03  1.140E-02  3.000E+00  1.630E+03  0.000E+00  0.000E+00
   1   48   14    12     5    1.0654E+03 -1.5748E+02   1.2228E+03  0.000E+00  0.000E+00  0.000E+00  2.35001E+03  1.225E-02  3.000E+00  1.630E+03  0.000E+00  0.000E+00
   1   47   15    12     6    1.2228E+03 -1.5989E+02   1.3827E+03  0.000E+00  0.000E+00  0.000E+00  2.34001E+03  1.350E-02  3.000E+00  1.630E+03  0.000E+00  0.000E+00
   1   47   16    12     7    1.3827E+03 -1.1853E+02   1.5013E+03  0.000E+00  0.000E+00  0.000E+00  2.33502E+03  1.574E-02  3.000E+00  1.630E+03  0.000E+00  0.000E+00
   1   46   17    12     8    1.5013E+03  8.5207E+01   1.4161E+03  0.000E+00  0.000E+00  0.000E+00  2.32901E+03  1.475E-02  3.000E+00  1.630E+03  0.000E+00  0.000E+00
   1   46   18    12     9    1.4161E+03  1.7602E+02   1.2400E+03  0.000E+00  0.000E+00  0.000E+00  2.32101E+03  1.135E-02  3.000E+00  1.350E+03  0.000E+00  0.000E+00
   1   46   19    12    10    1.2400E+03 -1.5111E+02   1.3911E+03  0.000E+00  0.000E+00  0.000E+00  2.30601E+03  1.283E-02  3.000E+00  1.350E+03  0.000E+00  0.000E+00
   1   46   20    12    11    1.3911E+03  9.7776E+01   1.2934E+03  0.000E+00  0.000E+00  0.000E+00  2.30601E+03  1.095E-02  3.000E+00  1.630E+03  9.773E+01  4.686E-02
   1   45   21    12    12    1.2934E+03 -4.0743E+01   1.3341E+03  0.000E+00  0.000E+00  0.000E+00  2.27401E+03  9.582E-03  3.000E+00  1.909E+03  0.000E+00  0.000E+00
   1   44   22    12    13    1.3341E+03 -1.2922E+02   1.4633E+03  0.000E+00  0.000E+00  0.000E+00  2.25001E+03  1.077E-02  3.000E+00  1.909E+03  0.000E+00  0.000E+00
   1   43   23    12    14    1.4633E+03  1.5923E+02   1.3041E+03  0.000E+00  0.000E+00  0.000E+00  2.23101E+03  1.078E-02  3.000E+00  1.909E+03  0.000E+00  0.000E+00
   1   42   24    12    15    1.3041E+03 -7.3267E+01   1.3774E+03  0.000E+00  0.000E+00  0.000E+00  2.20801E+03  1.104E-02  3.000E+00  1.630E+03  0.000E+00  0.000E+00
   1   42   25    12    16    1.3774E+03 -1.0150E+01   1.3875E+03  0.000E+00  0.000E+00  0.000E+00  2.20001E+03  1.213E-02  3.000E+00  1.350E+03  0.000E+00  0.000E+00
   1   42   26    12    17    1.3875E+03  1.3090E+02   1.2566E+03  0.000E+00  0.000E+00  0.000E+00  2.18801E+03  1.045E-02  3.000E+00  1.350E+03  0.000E+00  0.000E+00
   1   42   27    12    18    1.2566E+03 -2.4919E+02   1.5058E+03  0.000E+00  0.000E+00  0.000E+00  2.17001E+03  1.084E-02  3.000E+00  1.350E+03  0.000E+00  0.000E+00
   1   42   28    12    19    1.5058E+03 -7.6706E+01   1.5825E+03  0.000E+00  0.000E+00  0.000E+00  2.15901E+03  1.239E-02  3.000E+00  1.630E+03  0.000E+00  0.000E+00
   1   41   29    12    20    1.5825E+03  1.6719E+02   1.4153E+03  0.000E+00  0.000E+00  0.000E+00  2.14201E+03  1.227E-02  3.000E+00  1.909E+03  0.000E+00  0.000E+00
   1   40   30    12    21    1.4153E+03  6.6841E+01   1.3485E+03  0.000E+00  0.000E+00  0.000E+00  2.12701E+03  1.229E-02  3.000E+00  1.909E+03  0.000E+00  0.000E+00
   1   39   31    12    22    1.3485E+03  1.1455E+02   1.2339E+03  0.000E+00  0.000E+00  0.000E+00  2.11501E+03  1.223E-02  3.000E+00  1.909E+03  1.141E+02  4.894E-01
   1   38   32    12    23    1.2339E+03  1.1455E+02   1.1194E+03  0.000E+00  0.000E+00  0.000E+00  2.10301E+03  1.129E-02  3.000E+00  1.909E+03  1.141E+02  4.623E-01
   1   37   33    12    24    1.1194E+03  1.1353E+01   1.1080E+03  0.000E+00  0.000E+00  0.000E+00  2.08901E+03  1.092E-02  3.000E+00  1.909E+03  0.000E+00  0.000E+00
   1   36   34    12    25    1.1080E+03 -5.3406E+01   1.1614E+03  0.000E+00  0.000E+00  0.000E+00  2.07701E+03  9.434E-03  3.000E+00  9.546E+02  0.000E+00  0.000E+00
   1   38   62    13     1    7.8420E+03 -1.0224E+02   7.9443E+03  0.000E+00  0.000E+00  0.000E+00  1.96303E+03  3.449E-02  3.000E+00  6.750E+02  0.000E+00  0.000E+00
   1   38   63    13     2    7.9443E+03 -1.3540E+01   7.9578E+03  0.000E+00  0.000E+00  0.000E+00  1.96526E+03  2.256E+00  3.000E+00  1.350E+03  0.000E+00  0.000E+00
   1   38   64    13     3    7.9578E+03  1.3861E+01   7.9440E+03  0.000E+00  0.000E+00  0.000E+00  1.96526E+03  2.256E+00  3.000E+00  1.350E+03  0.000E+00  0.000E+00
   1   38   65    13     4    7.9440E+03 -3.1322E+01   7.9753E+03  0.000E+00  0.000E+00  0.000E+00  1.96306E+03  6.124E-02  3.000E+00  1.350E+03  0.000E+00  0.000E+00
   1   38   66    13     5    7.9753E+03 -6.9493E+01   8.0448E+03  0.000E+00  0.000E+00  0.000E+00  1.96005E+03  5.274E-02  3.000E+00  1.350E+03  0.000E+00  0.000E+00
   1   38   67    13     6    8.0448E+03 -4.1863E+01   8.0866E+03  0.000E+00  0.000E+00  0.000E+00  1.95805E+03  5.066E-02  3.000E+00  1.630E+03  0.000E+00  0.000E+00
   1   39   68    13     7    8.0866E+03 -1.4388E+01   8.1010E+03  0.000E+00  0.000E+00  0.000E+00  1.95305E+03  4.561E-02  3.000E+00  1.630E+03  0.000E+00  0.000E+00
   1   39   69    13     8    8.1010E+03 -7.3403E+01   8.1744E+03  0.000E+00  0.000E+00  0.000E+00  1.94805E+03  4.813E-02  3.000E+00  1.350E+03  0.000E+00  0.000E+00
   1   39   70    13     9    8.1744E+03  2.0819E+01   8.1536E+03  0.000E+00  0.000E+00  0.000E+00  1.94604E+03  4.102E-02  3.000E+00  6.750E+02  0.000E+00  0.000E+00
   1   46   61    14     1    0.0000E+00 -1.8447E+01   1.8447E+01  0.000E+00  0.000E+00  0.000E+00  2.01700E+03  6.697E-04  3.000E+00  1.350E+03  0.000E+00  0.000E+00
   1   45   61    14     2    1.8447E+01  1.8447E+01   0.0000E+00  0.000E+00  0.000E+00  0.000E+00  2.01000E+03  2.449E-04  3.000E+00  1.350E+03  0.000E+00  0.000E+00
   1   44   61    14     3    0.0000E+00  0.0000E+00   0.0000E+00  0.000E+00  0.000E+00  0.000E+00  2.00600E+03  0.000E+00  3.000E+00  1.350E+03  0.000E+00  0.000E+00
   1   43   61    14     4    0.0000E+00  0.0000E+00   0.0000E+00  0.000E+00  0.000E+00  0.000E+00  1.99900E+03  0.000E+00  3.000E+00  1.350E+03  0.000E+00  0.000E+00
   1   42   61    14     5    0.0000E+00  0.0000E+00   0.0000E+00  0.000E+00  0.000E+00  0.000E+00  1.99300E+03  0.000E+00  3.000E+00  1.350E+03  0.000E+00  0.000E+00
   1   41   61    14     6    0.0000E+00  0.0000E+00   0.0000E+00  0.000E+00  0.000E+00  0.000E+00  1.98500E+03  0.000E+00  3.000E+00  1.350E+03  0.000E+00  0.000E+00
   1   40   61    14     7    0.0000E+00 -3.4353E+01   3.4353E+01  0.000E+00  0.000E+00  0.000E+00  1.97800E+03  1.018E-03  3.000E+00  1.350E+03  0.000E+00  0.000E+00
   1   39   61    14     8    3.4353E+01  3.4353E+01   0.0000E+00  0.000E+00  0.000E+00  0.000E+00  1.97300E+03  3.428E-04  3.000E+00  1.630E+03  0.000E+00  0.000E+00
   1   38   62    14     9    0.0000E+00 -1.7506E+02   1.7506E+02  0.000E+00  0.000E+00  0.000E+00  1.96300E+03  2.572E-03  3.000E+00  9.546E+02  0.000E+00  0.000E+00
   1   39   70    15     1    8.5743E+03  1.6890E+01   8.5575E+03  0.000E+00  0.000E+00  0.000E+00  1.94604E+03  3.520E-02  3.000E+00  6.750E+02  0.000E+00  0.000E+00
   1   39   71    15     2    8.5575E+03 -1.0376E+02   8.6612E+03  0.000E+00  0.000E+00  0.000E+00  1.94206E+03  5.827E-02  3.000E+00  1.630E+03  0.000E+00  0.000E+00
   1   40   72    15     3    8.6612E+03 -2.6479E+01   8.6877E+03  0.000E+00  0.000E+00  0.000E+00  1.94106E+03  6.259E-02  3.000E+00  1.630E+03  0.000E+00  0.000E+00
   1   40   73    15     4    8.6877E+03 -4.2421E+01   8.7301E+03  0.000E+00  0.000E+00  0.000E+00  1.93806E+03  5.546E-02  3.000E+00  1.350E+03  0.000E+00  0.000E+00
   1   40   74    15     5    8.7301E+03 -1.7567E+01   8.7477E+03  0.000E+00  0.000E+00  0.000E+00  1.93606E+03  5.942E-02  3.000E+00  1.350E+03  0.000E+00  0.000E+00
   1   40   75    15     6    8.7477E+03  8.9087E-01   8.7468E+03  0.000E+00  0.000E+00  0.000E+00  1.93405E+03  5.264E-02  3.000E+00  6.750E+02  0.000E+00  0.000E+00
   1   40   75    16     1    9.5558E+03 -2.4947E+00   9.5583E+03  0.000E+00  0.000E+00  0.000E+00  1.93405E+03  4.763E-02  3.000E+00  6.750E+02  0.000E+00  0.000E+00
   1   40   76    16     2    9.5583E+03  0.0000E+00   9.5583E+03  0.000E+00  0.000E+00  0.000E+00  1.93307E+03  6.835E-02  3.000E+00  0.000E+00  0.000E+00  0.000E+00
   1   55   73    17     1    0.0000E+00 -1.4205E+00   1.4205E+00  0.000E+00  0.000E+00  0.000E+00  2.04100E+03  1.426E-04  3.000E+00  1.350E+03  0.000E+00  0.000E+00
   1   54   73    17     2    1.4205E+00  1.4205E+00   0.0000E+00  0.000E+00  0.000E+00  0.000E+00  2.02900E+03  4.161E-05  3.000E+00  1.350E+03  0.000E+00  0.000E+00
   1   53   73    17     3    0.0000E+00  0.0000E+00   0.0000E+00  0.000E+00  0.000E+00  0.000E+00  2.01700E+03  0.000E+00  3.000E+00  1.350E+03  0.000E+00  0.000E+00
   1   52   73    17     4    0.0000E+00 -5.0987E+01   5.0987E+01  0.000E+00  0.000E+00  0.000E+00  2.01000E+03  1.190E-03  3.000E+00  1.630E+03  0.000E+00  0.000E+00
   1   51   72    17     5    5.0987E+01 -2.4056E+02   2.9155E+02  0.000E+00  0.000E+00  0.000E+00  1.99800E+03  3.848E-03  3.000E+00  1.630E+03  0.000E+00  0.000E+00
   1   50   72    17     6    2.9155E+02 -1.1985E+01   3.0353E+02  0.000E+00  0.000E+00  0.000E+00  1.99301E+03  5.624E-03  3.000E+00  1.350E+03  0.000E+00  0.000E+00
   1   49   72    17     7    3.0353E+02 -7.7624E+01   3.8116E+02  0.000E+00  0.000E+00  0.000E+00  1.98601E+03  5.841E-03  3.000E+00  1.350E+03  0.000E+00  0.000E+00
   1   48   72    17     8    3.8116E+02 -1.1234E+02   4.9350E+02  0.000E+00  0.000E+00  0.000E+00  1.97901E+03  6.765E-03  3.000E+00  1.350E+03  0.000E+00  0.000E+00
   1   47   72    17     9    4.9350E+02 -1.7688E+02   6.7038E+02  0.000E+00  0.000E+00  0.000E+00  1.97201E+03  8.211E-03  3.000E+00  1.350E+03  0.000E+00  0.000E+00
   1   46   72    17    10    6.7038E+02 -1.3127E+01   6.8350E+02  0.000E+00  0.000E+00  0.000E+00  1.96601E+03  9.209E-03  3.000E+00  1.350E+03  0.000E+00  0.000E+00
   1   45   72    17    11    6.8350E+02 -3.5538E-01   6.8386E+02  0.000E+00  0.000E+00  0.000E+00  1.96001E+03  9.359E-03  3.000E+00  1.630E+03  0.000E+00  0.000E+00
   1   44   73    17    12    6.8386E+02 -1.4921E+01   6.9878E+02  0.000E+00  0.000E+00  0.000E+00  1.95201E+03  9.634E-03  3.000E+00  1.630E+03  0.000E+00  0.000E+00
   1   43   73    17    13    6.9878E+02 -3.4966E+01   7.3375E+02  0.000E+00  0.000E+00  0.000E+00  1.94701E+03  1.076E-02  3.000E+00  1.350E+03  0.000E+00  0.000E+00
   1   42   73    17    14    7.3375E+02  1.1343E+00   7.3261E+02  0.000E+00  0.000E+00  0.000E+00  1.94401E+03  1.114E-02  3.000E+00  1.630E+03  0.000E+00  0.000E+00
   1   41   74    17    15    7.3261E+02 -3.8714E+01   7.7133E+02  0.000E+00  0.000E+00  0.000E+00  1.93801E+03  1.150E-02  3.000E+00  1.909E+03  0.000E+00  0.000E+00
   1   40   75    17    16    7.7133E+02 -3.7689E+01   8.0901E+02  0.000E+00  0.000E+00  0.000E+00  1.93401E+03  1.184E-02  3.000E+00  9.546E+02  0.000E+00  0.000E+00
   1   37   55    18     1    0.0000E+00  0.0000E+00   0.0000E+00  0.000E+00  0.000E+00  0.000E+00  2.00700E+03  0.000E+00  3.000E+00  1.630E+03  0.000E+00  0.000E+00
   1   36   54    19     1    0.0000E+00  0.0000E+00   0.0000E+00  0.000E+00  0.000E+00  0.000E+00  2.00700E+03  0.000E+00  3.000E+00  1.630E+03  0.000E+00  0.000E+00



1
  VOLUMETRIC BUDGET FOR UNSATURATED ZONE BENEATH STREAMS AT END OF TIME STEP    31 STRESS PERIOD   7
  ------------------------------------------------------------------------------------------------

    CUMULATIVE VOLUMES             L**3    RATES FOR THIS TIME STEP         L**3/T
    ------------------                     ------------------------


          STREAM LOSS =       193265.8438            STREAM LOSS =          971.6267
    CHANGE IN STORAGE =           -0.7845      CHANGE IN STORAGE =       -7.2343E-02
       RECHARGE TO GW =       193265.9062         RECHARGE TO GW =          971.6993

             TOTAL IN =       193266.6250               TOTAL IN =          971.6990

            TOTAL OUT =       193265.9062              TOTAL OUT =          971.6993

             IN - OUT =            0.7188               IN - OUT =       -2.4414E-04

  PERCENT DISCREPANCY =            0.00      PERCENT DISCREPANCY =            -0.00



 ***WARNING***NUZTOP IS 3 AND ALL LAYERS  IN ROW           39  AND COLUMN           76  ARE INACTIVE.
 UNSATURATED FLOW WILL NOT BE ADDED TO ANY LAYER-- SOME WATER MAY FLOW PAST LOWEST LAYER
 ***WARNING***NUZTOP IS 3 AND ALL LAYERS  IN ROW           40  AND COLUMN           76  ARE INACTIVE.
 UNSATURATED FLOW WILL NOT BE ADDED TO ANY LAYER-- SOME WATER MAY FLOW PAST LOWEST LAYER


UNSATURATED ZONE PACKAGE VOLUMETRIC BUDGET FOR  TIME STEP    31 STRESS PERIOD    7
  ------------------------------------------------------------------------------



     CUMULATIVE VOLUMES      L**3       RATES FOR THIS TIME STEP      L**3/T
     ------------------                 ------------------------

           IN:                                      IN:
           ---                                      ---
        INFILTRATION =       26653.0419          INFILTRATION =       0.0000E+00

          OUT:                                     OUT:
          ----                                     ----
              UZF ET =      658119.2914                UZF ET =           1.4434
        UZF RECHARGE =     2776361.8031          UZF RECHARGE =        8052.8209

            IN - OUT =    -3407828.0525              IN - OUT =       -8054.2643

          STORAGE:                                 STORAGE:
          --------                                 --------
      STORAGE CHANGE =    -3405847.3562        STORAGE CHANGE =       -8054.2643

 PERCENT DISCREPANCY IS DIFFERENCE BETWEEN IN-OUT MINUS CHANGE IN STORAGE
 DIVIDED BY THE AVERAGE OF IN AND OUT TIMES 100

 PERCENT DISCREPANCY =          -0.01     PERCENT DISCREPANCY =           0.00






1
  VOLUMETRIC BUDGET FOR AGRICULTURAL FIELDS AT  END OF TIME STEP   31, STRESS PERIOD   7
  ------------------------------------------------------------------------------

     CUMULATIVE VOLUMES      L**3       RATES FOR THIS TIME STEP      L**3/T
     ------------------                 ------------------------

           IN:                                      IN:
           ---                                      ---
               AG WELLS  =           0.0000                 AG WELLS  =          -0.0000
      DIVERSION SEGMENTS =           0.0000        DIVERSION SEGMENTS =           0.0000
       IRRIGATION PONDS  =           0.0000         IRRIGATION PONDS  =           0.0000
           GW IRRIGATION =           0.0000             GW IRRIGATION =           0.0000
           SW IRRIGATION =           0.0000             SW IRRIGATION =           0.0000
        SYSTEM LOSSES GW =           0.0000          SYSTEM LOSSES GW =           0.0000
        SYSTEM LOSSES SW =           0.0000          SYSTEM LOSSES SW =          -0.0000

                TOTAL IN =           0.0000                  TOTAL IN =           0.0000

          OUT:                                     OUT:
          ----                                     ----
               AG WELLS  =           0.0000                 AG WELLS  =           0.0000
      DIVERSION SEGMENTS =           0.0000        DIVERSION SEGMENTS =           0.0000
       IRRIGATION PONDS  =           0.0000         IRRIGATION PONDS  =           0.0000
           GW IRRIGATION =           0.0000             GW IRRIGATION =           0.0000
           SW IRRIGATION =           0.0000             SW IRRIGATION =           0.0000
        SYSTEM LOSSES GW =           0.0000          SYSTEM LOSSES GW =           0.0000
        SYSTEM LOSSES SW =           0.0000          SYSTEM LOSSES SW =           0.0000

               TOTAL OUT =           0.0000                 TOTAL OUT =           0.0000

                IN - OUT =           0.0000                  IN - OUT =           0.0000

     PERCENT DISCREPANCY =           0.00         PERCENT DISCREPANCY =           0.00



1
  VOLUMETRIC BUDGET FOR ENTIRE MODEL AT END OF TIME STEP   31, STRESS PERIOD   7
  ------------------------------------------------------------------------------

     CUMULATIVE VOLUMES      L**3       RATES FOR THIS TIME STEP      L**3/T
     ------------------                 ------------------------

           IN:                                      IN:
           ---                                      ---
             STORAGE     =      786888.5000               STORAGE     =       11681.0791
       CONSTANT HEAD     =          60.5702         CONSTANT HEAD     =           1.0770
      STREAM LEAKAGE     =      478814.1250        STREAM LEAKAGE     =        2714.9893
        UZF RECHARGE     =     2776376.2500          UZF RECHARGE     =        8052.8252
               GW ET     =           0.0000                 GW ET     =           0.0000
     SURFACE LEAKAGE     =           0.0000       SURFACE LEAKAGE     =           0.0000
           AG WELLS      =           0.0000             AG WELLS      =           0.0000

                TOTAL IN =     4042139.5000                  TOTAL IN =       22449.9707

          OUT:                                     OUT:
          ----                                     ----
             STORAGE     =     1111115.7500               STORAGE     =         722.7191
       CONSTANT HEAD     =        6513.8916         CONSTANT HEAD     =          34.3603
      STREAM LEAKAGE     =     2355066.5000        STREAM LEAKAGE     =       12268.8652
        UZF RECHARGE     =           0.0000          UZF RECHARGE     =           0.0000
               GW ET     =      545922.8125                 GW ET     =        9289.9893
     SURFACE LEAKAGE     =       24074.6504       SURFACE LEAKAGE     =         138.8829
           AG WELLS      =           0.0000             AG WELLS      =           0.0000

               TOTAL OUT =     4042693.5000                 TOTAL OUT =       22454.8164

                IN - OUT =        -554.0000                  IN - OUT =          -4.8457

     PERCENT DISCREPANCY =          -0.01         PERCENT DISCREPANCY =          -0.02






         TIME SUMMARY AT END OF TIME STEP   31 IN STRESS PERIOD    7
                    SECONDS     MINUTES      HOURS       DAYS        YEARS
                    -----------------------------------------------------------
   TIME STEP LENGTH  86400.      1440.0      24.000      1.0000     2.73785E-03
 STRESS PERIOD TIME 2.67840E+06  44640.      744.00      31.000     8.48734E-02
         TOTAL TIME 1.58112E+07 2.63520E+05  4392.0      183.00     0.50103    
1
1
                            STRESS PERIOD NO.    8, LENGTH =   30.00000    
                            -----------------------------------------------

                              NUMBER OF TIME STEPS =    30

                               MULTIPLIER FOR DELT =     1.000

                            INITIAL TIME STEP SIZE =   1.000000    
 USING INFILTRATION RATE FROM PREVIOUS STRESS 
 PERIOD.CURRENT PERIOD IS:            8

USING ET RATE FROM PREVIOUS STRESS PERIOD. CURRENT PERIOD IS:       8

 USING ET EXTINCTION DEPTH FROM PREVIOUS STRESS PERIOD. CURRENT PERIOD IS:       8

 USING EXTINCTION WATER CONTENT FROM PREVIOUS STRESS PERIOD. CURRENT PERIOD IS:       8

 PROCESSING AG STRESS PERIOD DATA

 READING AG STRESS PERIOD DATA

 READING IRRIGATION POND

 END PROCESSING AG STRESS PERIOD DATA OPTIONS
                                                   Max.-Head-Change                         Max.-Flux-Residual
  Residual-Control   Outer-Iter.   Inner-Iter.     Column Row Layer    Maximum-Head-Change  Column Row Layer    Maximum-Flux-Residual          L2-NORM 
          0                 1           6             3   57     1       0.1241031411E+01      39   59    1        -0.3601278039E+02      0.2532441362E+03
          0                 2           5            69   48     1       0.8417060563E+00      63   38    1         0.3022112222E+02      0.7375364028E+02
          0                 3           3            63   38     1       0.2106722840E-01      63   38    1         0.2976515639E+02      0.4714477281E+02
          0                 4           3            63   38     1       0.2646175912E-01      63   38    1         0.3740169873E+02      0.5277296244E+02
          0                 5           3            64   38     1       0.1194383220E-01      64   38    1         0.1690982926E+02      0.2136409940E+02
          0                 6           2            64   38     1       0.3489689853E-02      64   38    1         0.4955863014E+01      0.5930053028E+01
          0                 7           1            64   38     1       0.7752041936E-03      64   38    1         0.1102914438E+01      0.1479884741E+01

    ------------------------------------------------
       NWT REQUIRED            7 OUTER ITERATIONS 
       AND A TOTAL OF         23 INNER ITERATIONS.
    ------------------------------------------------

 OUTPUT CONTROL FOR STRESS PERIOD    8   TIME STEP    1
    PRINT BUDGET
    SAVE BUDGET
    SAVE HEAD FOR ALL LAYERS



 STREAM LISTING     PERIOD      8   STEP        1

 LAYER ROW COL. STREAM  RCH.   FLOW INTO    STREAM     FLOW OUT OF   OVRLND.    DIRECT     STREAM      STREAM      STREAM     STREAM  STREAMBED   FLOW TO   CHNG. UNSAT. 
                SEG.NO.  NO.   STRM. RCH.    LOSS       STRM. RCH.   RUNOFF     PRECIP       ET         HEAD        DEPTH      WIDTH  CONDCTNC.   WAT. TAB.

   1   18   62     1     1    0.0000E+00 -5.7535E+00   6.6237E+00  8.702E-01  0.000E+00  0.000E+00  2.07300E+03  3.814E-04  3.000E+00  1.909E+03  0.000E+00  0.000E+00
   1   19   63     1     2    6.6237E+00 -4.7890E+01   5.5383E+01  8.702E-01  0.000E+00  0.000E+00  2.06300E+03  1.400E-03  3.000E+00  1.909E+03  0.000E+00  0.000E+00
   1   20   64     1     3    5.5383E+01 -7.6917E+01   1.3317E+02  8.702E-01  0.000E+00  0.000E+00  2.05400E+03  2.986E-03  3.000E+00  1.630E+03  0.000E+00  0.000E+00
   1   21   64     1     4    1.3317E+02 -8.0879E+01   2.1492E+02  8.702E-01  0.000E+00  0.000E+00  2.05101E+03  5.310E-03  3.000E+00  1.630E+03  0.000E+00  0.000E+00
   1   22   65     1     5    2.1492E+02 -1.1234E+01   2.2702E+02  8.702E-01  0.000E+00  0.000E+00  2.04801E+03  5.221E-03  3.000E+00  9.546E+02  0.000E+00  0.000E+00
   1   20   66     2     1    0.0000E+00 -5.0064E+01   5.0064E+01  0.000E+00  0.000E+00  0.000E+00  2.05300E+03  1.740E-03  3.000E+00  1.909E+03  0.000E+00  0.000E+00
   1   21   65     2     2    5.0064E+01  6.3894E+00   4.3675E+01  0.000E+00  0.000E+00  0.000E+00  2.05100E+03  2.553E-03  3.000E+00  1.630E+03  0.000E+00  0.000E+00
   1   22   65     2     3    4.3675E+01 -1.0184E+01   5.3859E+01  0.000E+00  0.000E+00  0.000E+00  2.04800E+03  1.902E-03  3.000E+00  6.750E+02  0.000E+00  0.000E+00
   1   22   65     3     1    2.8088E+02 -7.7700E+00   2.8865E+02  0.000E+00  0.000E+00  0.000E+00  2.04801E+03  5.479E-03  3.000E+00  6.750E+02  0.000E+00  0.000E+00
   1   23   65     3     2    2.8865E+02 -9.0309E+01   3.7896E+02  0.000E+00  0.000E+00  0.000E+00  2.04501E+03  9.664E-03  3.000E+00  1.630E+03  0.000E+00  0.000E+00
   1   24   66     3     3    3.7896E+02 -1.9593E+01   3.9856E+02  0.000E+00  0.000E+00  0.000E+00  2.04537E+03  3.688E-01  3.000E+00  1.909E+03  0.000E+00  0.000E+00
   1   25   67     3     4    3.9856E+02  1.2559E+01   3.8600E+02  0.000E+00  0.000E+00  0.000E+00  2.04501E+03  1.116E-02  3.000E+00  1.909E+03  0.000E+00  0.000E+00
   1   26   68     3     5    3.8600E+02 -1.3733E+01   3.9973E+02  0.000E+00  0.000E+00  0.000E+00  2.04201E+03  9.771E-03  3.000E+00  1.630E+03  0.000E+00  0.000E+00
   1   27   68     3     6    3.9973E+02  7.8004E+01   3.2173E+02  0.000E+00  0.000E+00  0.000E+00  2.04101E+03  8.221E-03  3.000E+00  1.630E+03  0.000E+00  0.000E+00
   1   28   69     3     7    3.2173E+02  9.7776E+01   2.2395E+02  0.000E+00  0.000E+00  0.000E+00  2.03601E+03  5.647E-03  3.000E+00  1.630E+03  9.792E+01 -1.452E-01
   1   29   69     3     8    2.2395E+02  3.5316E+01   1.8863E+02  0.000E+00  0.000E+00  0.000E+00  2.02900E+03  4.405E-03  3.000E+00  1.350E+03  0.000E+00  0.000E+00
   1   30   69     3     9    1.8863E+02  1.1429E+01   1.7720E+02  0.000E+00  0.000E+00  0.000E+00  2.02300E+03  3.933E-03  3.000E+00  1.630E+03  0.000E+00  0.000E+00
   1   31   70     3    10    1.7720E+02 -1.0952E+02   2.8672E+02  0.000E+00  0.000E+00  0.000E+00  2.01100E+03  4.535E-03  3.000E+00  1.630E+03  0.000E+00  0.000E+00
   1   32   70     3    11    2.8672E+02 -2.0380E+02   4.9053E+02  0.000E+00  0.000E+00  0.000E+00  2.00501E+03  7.453E-03  3.000E+00  1.350E+03  0.000E+00  0.000E+00
   1   33   70     3    12    4.9053E+02  1.8980E+01   4.7154E+02  0.000E+00  0.000E+00  0.000E+00  2.00301E+03  6.914E-03  3.000E+00  1.630E+03  0.000E+00  0.000E+00
   1   34   69     3    13    4.7154E+02 -2.5078E+01   4.9662E+02  0.000E+00  0.000E+00  0.000E+00  1.98601E+03  6.051E-03  3.000E+00  1.630E+03  0.000E+00  0.000E+00
   1   35   69     3    14    4.9662E+02 -3.8996E+01   5.3562E+02  0.000E+00  0.000E+00  0.000E+00  1.97301E+03  6.816E-03  3.000E+00  1.350E+03  0.000E+00  0.000E+00
   1   36   69     3    15    5.3562E+02  8.2346E+00   5.2738E+02  0.000E+00  0.000E+00  0.000E+00  1.96701E+03  7.603E-03  3.000E+00  1.350E+03  0.000E+00  0.000E+00
   1   37   69     3    16    5.2738E+02  1.4300E+01   5.1308E+02  0.000E+00  0.000E+00  0.000E+00  1.95901E+03  7.506E-03  3.000E+00  1.350E+03  0.000E+00  0.000E+00
   1   38   69     3    17    5.1308E+02  1.7958E+01   4.9513E+02  0.000E+00  0.000E+00  0.000E+00  1.95301E+03  7.969E-03  3.000E+00  1.630E+03  0.000E+00  0.000E+00
   1   39   70     3    18    4.9513E+02 -5.8235E+00   5.0095E+02  0.000E+00  0.000E+00  0.000E+00  1.94601E+03  7.084E-03  3.000E+00  9.546E+02  0.000E+00  0.000E+00
   1   25   49     4     1    0.0000E+00 -1.6470E+02   1.6470E+02  0.000E+00  0.000E+00  0.000E+00  2.03500E+03  2.441E-03  3.000E+00  1.909E+03  0.000E+00  0.000E+00
   1   26   50     4     2    1.6470E+02 -9.8286E+01   2.6298E+02  0.000E+00  0.000E+00  0.000E+00  2.02600E+03  4.695E-03  3.000E+00  1.909E+03  0.000E+00  0.000E+00
   1   27   51     4     3    2.6298E+02 -7.9980E+01   3.4296E+02  0.000E+00  0.000E+00  0.000E+00  2.01901E+03  6.015E-03  3.000E+00  1.630E+03  0.000E+00  0.000E+00
   1   28   51     4     4    3.4296E+02 -8.7164E+01   4.3013E+02  0.000E+00  0.000E+00  0.000E+00  2.01401E+03  7.354E-03  3.000E+00  1.630E+03  0.000E+00  0.000E+00
   1   29   52     4     5    4.3013E+02 -5.0630E+01   4.8076E+02  0.000E+00  0.000E+00  0.000E+00  2.00901E+03  8.114E-03  3.000E+00  1.630E+03  0.000E+00  0.000E+00
   1   30   52     4     6    4.8076E+02 -1.7022E+01   4.9778E+02  0.000E+00  0.000E+00  0.000E+00  2.00401E+03  8.006E-03  3.000E+00  1.350E+03  0.000E+00  0.000E+00
   1   31   52     4     7    4.9778E+02 -2.3715E+01   5.2149E+02  0.000E+00  0.000E+00  0.000E+00  1.99901E+03  9.131E-03  3.000E+00  1.350E+03  0.000E+00  0.000E+00
   1   32   52     4     8    5.2149E+02 -2.4131E+00   5.2391E+02  0.000E+00  0.000E+00  0.000E+00  1.99701E+03  9.423E-03  3.000E+00  1.630E+03  0.000E+00  0.000E+00
   1   33   53     4     9    5.2391E+02  6.8356E+00   5.1707E+02  0.000E+00  0.000E+00  0.000E+00  1.99101E+03  9.219E-03  3.000E+00  1.909E+03  0.000E+00  0.000E+00
   1   34   54     4    10    5.1707E+02  2.7372E+01   4.8970E+02  0.000E+00  0.000E+00  0.000E+00  1.98701E+03  9.326E-03  3.000E+00  1.909E+03  0.000E+00  0.000E+00
   1   35   55     4    11    4.8970E+02  3.8937E+01   4.5076E+02  0.000E+00  0.000E+00  0.000E+00  1.98201E+03  8.038E-03  3.000E+00  1.630E+03  0.000E+00  0.000E+00
   1   36   55     4    12    4.5076E+02 -6.0659E+01   5.1142E+02  0.000E+00  0.000E+00  0.000E+00  1.97601E+03  7.164E-03  3.000E+00  6.750E+02  0.000E+00  0.000E+00
   1   35   37     5     1    5.0290E+03 -6.3466E+01   5.0925E+03  0.000E+00  0.000E+00  0.000E+00  2.05403E+03  2.546E-02  3.000E+00  9.546E+02  0.000E+00  0.000E+00
   1   34   38     5     2    5.0925E+03 -1.2658E+02   5.2191E+03  0.000E+00  0.000E+00  0.000E+00  2.04603E+03  3.169E-02  3.000E+00  1.909E+03  0.000E+00  0.000E+00
   1   33   39     5     3    5.2191E+03 -2.4381E+02   5.4629E+03  0.000E+00  0.000E+00  0.000E+00  2.03804E+03  3.847E-02  3.000E+00  1.909E+03  0.000E+00  0.000E+00
   1   32   40     5     4    5.4629E+03  1.0338E+02   5.3595E+03  0.000E+00  0.000E+00  0.000E+00  2.03704E+03  3.830E-02  3.000E+00  1.630E+03  0.000E+00  0.000E+00
   1   32   41     5     5    5.3595E+03 -1.4212E+02   5.5016E+03  0.000E+00  0.000E+00  0.000E+00  2.03003E+03  3.212E-02  3.000E+00  1.350E+03  0.000E+00  0.000E+00
   1   32   42     5     6    5.5016E+03 -1.7567E+02   5.6773E+03  0.000E+00  0.000E+00  0.000E+00  2.02504E+03  3.842E-02  3.000E+00  1.350E+03  0.000E+00  0.000E+00
   1   32   43     5     7    5.6773E+03 -6.3918E+01   5.7412E+03  0.000E+00  0.000E+00  0.000E+00  2.02304E+03  4.312E-02  3.000E+00  1.630E+03  0.000E+00  0.000E+00
   1   33   44     5     8    5.7412E+03 -1.5026E+02   5.8915E+03  0.000E+00  0.000E+00  0.000E+00  2.01904E+03  4.366E-02  3.000E+00  1.909E+03  0.000E+00  0.000E+00
   1   34   45     5     9    5.8915E+03 -2.6554E+01   5.9180E+03  0.000E+00  0.000E+00  0.000E+00  2.01604E+03  4.036E-02  3.000E+00  1.630E+03  0.000E+00  0.000E+00
   1   34   46     5    10    5.9180E+03 -1.0718E+02   6.0252E+03  0.000E+00  0.000E+00  0.000E+00  2.01104E+03  3.707E-02  3.000E+00  1.350E+03  0.000E+00  0.000E+00
   1   34   47     5    11    6.0252E+03  6.4708E+00   6.0187E+03  0.000E+00  0.000E+00  0.000E+00  2.00703E+03  2.932E-02  3.000E+00  6.750E+02  0.000E+00  0.000E+00
   1   34   47     6     1    6.0370E+03  4.9957E+00   6.0320E+03  0.000E+00  0.000E+00  0.000E+00  2.00703E+03  2.714E-02  3.000E+00  6.750E+02  0.000E+00  0.000E+00
   1   34   48     6     2    6.0320E+03 -1.3091E+02   6.1629E+03  0.000E+00  0.000E+00  0.000E+00  2.00104E+03  3.557E-02  3.000E+00  1.630E+03  0.000E+00  0.000E+00
   1   35   49     6     3    6.1629E+03 -2.7752E+02   6.4404E+03  0.000E+00  0.000E+00  0.000E+00  1.99404E+03  3.814E-02  3.000E+00  1.630E+03  0.000E+00  0.000E+00
   1   35   50     6     4    6.4404E+03 -2.0423E+02   6.6446E+03  0.000E+00  0.000E+00  0.000E+00  1.99005E+03  4.671E-02  3.000E+00  1.350E+03  0.000E+00  0.000E+00
   1   35   51     6     5    6.6446E+03  2.6645E+01   6.6180E+03  0.000E+00  0.000E+00  0.000E+00  1.98905E+03  4.717E-02  3.000E+00  1.630E+03  0.000E+00  0.000E+00
   1   36   52     6     6    6.6180E+03 -1.3783E+02   6.7558E+03  0.000E+00  0.000E+00  0.000E+00  1.98404E+03  4.198E-02  3.000E+00  1.630E+03  0.000E+00  0.000E+00
   1   36   53     6     7    6.7558E+03 -2.3661E+02   6.9924E+03  0.000E+00  0.000E+00  0.000E+00  1.98005E+03  5.443E-02  3.000E+00  1.630E+03  0.000E+00  0.000E+00
   1   37   54     6     8    6.9924E+03 -5.3254E+01   7.0457E+03  0.000E+00  0.000E+00  0.000E+00  1.98006E+03  5.780E-02  3.000E+00  1.909E+03  0.000E+00  0.000E+00
   1   36   55     6     9    7.0457E+03 -5.0522E+01   7.0962E+03  0.000E+00  0.000E+00  0.000E+00  1.97604E+03  4.410E-02  3.000E+00  9.546E+02  0.000E+00  0.000E+00
   1   36   34     7     1    2.1197E+03 -5.1729E+01   2.1714E+03  0.000E+00  0.000E+00  0.000E+00  2.07701E+03  1.383E-02  3.000E+00  9.546E+02  0.000E+00  0.000E+00
   1   35   35     7     2    2.1714E+03 -1.0301E+02   2.2744E+03  0.000E+00  0.000E+00  0.000E+00  2.06702E+03  1.860E-02  3.000E+00  1.630E+03  0.000E+00  0.000E+00
   1   35   36     7     3    2.2744E+03  2.2212E+01   2.2522E+03  0.000E+00  0.000E+00  0.000E+00  2.06202E+03  1.855E-02  3.000E+00  1.350E+03  0.000E+00  0.000E+00
   1   35   37     7     4    2.2522E+03 -5.2466E+01   2.3047E+03  0.000E+00  0.000E+00  0.000E+00  2.05401E+03  1.421E-02  3.000E+00  6.750E+02  0.000E+00  0.000E+00
   1   52   49     8     1    0.0000E+00 -2.1322E+02   2.1322E+02  0.000E+00  0.000E+00  0.000E+00  2.12100E+03  2.937E-03  3.000E+00  1.909E+03  0.000E+00  0.000E+00
   1   51   48     8     2    2.1322E+02 -2.0344E+02   4.1666E+02  0.000E+00  0.000E+00  0.000E+00  2.11701E+03  8.977E-03  3.000E+00  1.909E+03  0.000E+00  0.000E+00
   1   50   47     8     3    4.1666E+02  9.7776E+01   3.1888E+02  0.000E+00  0.000E+00  0.000E+00  2.11701E+03  7.632E-03  3.000E+00  1.630E+03  9.775E+01  2.220E-02
   1   49   47     8     4    3.1888E+02 -2.1296E+02   5.3185E+02  0.000E+00  0.000E+00  0.000E+00  2.10901E+03  7.788E-03  3.000E+00  1.630E+03  0.000E+00  0.000E+00
   1   48   46     8     5    5.3185E+02  9.0356E+00   5.2281E+02  0.000E+00  0.000E+00  0.000E+00  2.10701E+03  1.166E-02  3.000E+00  1.630E+03  0.000E+00  0.000E+00
   1   47   46     8     6    5.2281E+02  8.7056E+01   4.3575E+02  0.000E+00  0.000E+00  0.000E+00  2.10501E+03  1.041E-02  3.000E+00  1.350E+03  0.000E+00  0.000E+00
   1   46   46     8     7    4.3575E+02  8.1000E+01   3.5475E+02  0.000E+00  0.000E+00  0.000E+00  2.10301E+03  8.210E-03  3.000E+00  1.350E+03  8.107E+01 -6.740E-02
   1   45   46     8     8    3.5475E+02  8.1000E+01   2.7375E+02  0.000E+00  0.000E+00  0.000E+00  2.09901E+03  5.812E-03  3.000E+00  1.350E+03  8.114E+01 -1.368E-01
   1   44   46     8     9    2.7375E+02  8.1000E+01   1.9275E+02  0.000E+00  0.000E+00  0.000E+00  2.09100E+03  4.234E-03  3.000E+00  1.350E+03  8.114E+01 -1.433E-01
   1   43   46     8    10    1.9275E+02  9.9607E+01   9.3147E+01  0.000E+00  0.000E+00  0.000E+00  2.08000E+03  3.156E-03  3.000E+00  1.350E+03  0.000E+00  0.000E+00
   1   42   46     8    11    9.3147E+01  9.3147E+01   0.0000E+00  0.000E+00  0.000E+00  0.000E+00  2.07200E+03  5.722E-04  3.000E+00  1.630E+03  0.000E+00  0.000E+00
   1   41   45     8    12    0.0000E+00 -1.1354E+02   1.1354E+02  0.000E+00  0.000E+00  0.000E+00  2.06000E+03  1.950E-03  3.000E+00  1.630E+03  0.000E+00  0.000E+00
   1   40   45     8    13    1.1354E+02  8.1000E+01   3.2544E+01  0.000E+00  0.000E+00  0.000E+00  2.05400E+03  2.312E-03  3.000E+00  1.350E+03  8.110E+01 -1.014E-01
   1   39   45     8    14    3.2544E+01  3.2544E+01   0.0000E+00  0.000E+00  0.000E+00  0.000E+00  2.04600E+03  2.922E-04  3.000E+00  1.350E+03  3.072E+01  1.826E+00
   1   38   45     8    15    0.0000E+00  0.0000E+00   0.0000E+00  0.000E+00  0.000E+00  0.000E+00  2.03500E+03  0.000E+00  3.000E+00  1.350E+03  0.000E+00  0.000E+00
   1   37   45     8    16    0.0000E+00  0.0000E+00   0.0000E+00  0.000E+00  0.000E+00  0.000E+00  2.02700E+03  0.000E+00  3.000E+00  1.630E+03  0.000E+00  0.000E+00
   1   36   46     8    17    0.0000E+00  0.0000E+00   0.0000E+00  0.000E+00  0.000E+00  0.000E+00  2.02100E+03  0.000E+00  3.000E+00  1.630E+03  0.000E+00  0.000E+00
   1   35   46     8    18    0.0000E+00  0.0000E+00   0.0000E+00  0.000E+00  0.000E+00  0.000E+00  2.01400E+03  0.000E+00  3.000E+00  1.630E+03  0.000E+00  0.000E+00
   1   34   47     8    19    0.0000E+00 -1.8249E+01   1.8249E+01  0.000E+00  0.000E+00  0.000E+00  2.00700E+03  6.171E-04  3.000E+00  9.546E+02  0.000E+00  0.000E+00
   1   37   26     9     1    0.0000E+00  0.0000E+00   0.0000E+00  0.000E+00  0.000E+00  0.000E+00  2.14700E+03  0.000E+00  3.000E+00  1.350E+03  0.000E+00  0.000E+00
   1   37   27     9     2    0.0000E+00 -7.2208E+01   7.2208E+01  0.000E+00  0.000E+00  0.000E+00  2.13400E+03  1.323E-03  3.000E+00  1.350E+03  0.000E+00  0.000E+00
   1   37   28     9     3    7.2208E+01 -1.4220E+02   2.1441E+02  0.000E+00  0.000E+00  0.000E+00  2.12500E+03  3.344E-03  3.000E+00  1.630E+03  0.000E+00  0.000E+00
   1   36   29     9     4    2.1441E+02  3.1563E+00   2.1125E+02  0.000E+00  0.000E+00  0.000E+00  2.11500E+03  4.310E-03  3.000E+00  1.630E+03  0.000E+00  0.000E+00
   1   36   30     9     5    2.1125E+02 -8.6841E+01   2.9809E+02  0.000E+00  0.000E+00  0.000E+00  2.10700E+03  4.614E-03  3.000E+00  1.350E+03  0.000E+00  0.000E+00
   1   36   31     9     6    2.9809E+02 -2.0197E+02   5.0006E+02  0.000E+00  0.000E+00  0.000E+00  2.09801E+03  6.152E-03  3.000E+00  1.350E+03  0.000E+00  0.000E+00
   1   36   32     9     7    5.0006E+02 -1.4786E+02   6.4792E+02  0.000E+00  0.000E+00  0.000E+00  2.09101E+03  7.964E-03  3.000E+00  1.350E+03  0.000E+00  0.000E+00
   1   36   33     9     8    6.4792E+02 -1.3507E+02   7.8300E+02  0.000E+00  0.000E+00  0.000E+00  2.08401E+03  9.090E-03  3.000E+00  1.350E+03  0.000E+00  0.000E+00
   1   36   34     9     9    7.8300E+02 -4.0870E+01   8.2387E+02  0.000E+00  0.000E+00  0.000E+00  2.07701E+03  7.467E-03  3.000E+00  6.750E+02  0.000E+00  0.000E+00
   1   58   37    10     1    0.0000E+00 -1.3683E+02   1.3683E+02  0.000E+00  0.000E+00  0.000E+00  2.15000E+03  3.237E-03  3.000E+00  1.350E+03  0.000E+00  0.000E+00
   1   57   37    10     2    1.3683E+02 -9.7296E+01   2.3413E+02  0.000E+00  0.000E+00  0.000E+00  2.14701E+03  5.268E-03  3.000E+00  1.630E+03  0.000E+00  0.000E+00
   1   56   38    10     3    2.3413E+02 -1.6144E+01   2.5027E+02  0.000E+00  0.000E+00  0.000E+00  2.14301E+03  5.734E-03  3.000E+00  1.630E+03  0.000E+00  0.000E+00
   1   55   38    10     4    2.5027E+02 -1.7053E+02   4.2080E+02  0.000E+00  0.000E+00  0.000E+00  2.13801E+03  6.827E-03  3.000E+00  1.350E+03  0.000E+00  0.000E+00
   1   54   38    10     5    4.2080E+02 -1.1361E+02   5.3441E+02  0.000E+00  0.000E+00  0.000E+00  2.13501E+03  9.197E-03  3.000E+00  1.350E+03  0.000E+00  0.000E+00
   1   53   38    10     6    5.3441E+02 -1.0667E+02   6.4108E+02  0.000E+00  0.000E+00  0.000E+00  2.13201E+03  1.042E-02  3.000E+00  1.350E+03  0.000E+00  0.000E+00
   1   52   38    10     7    6.4108E+02 -1.6695E+02   8.0803E+02  0.000E+00  0.000E+00  0.000E+00  2.12901E+03  1.411E-02  3.000E+00  1.630E+03  0.000E+00  0.000E+00
   1   51   39    10     8    8.0803E+02  1.0512E+01   7.9752E+02  0.000E+00  0.000E+00  0.000E+00  2.12801E+03  1.501E-02  3.000E+00  1.630E+03  0.000E+00  0.000E+00
   1   50   39    10     9    7.9752E+02 -7.7282E+01   8.7480E+02  0.000E+00  0.000E+00  0.000E+00  2.12501E+03  1.300E-02  3.000E+00  1.630E+03  0.000E+00  0.000E+00
   1   49   38    10    10    8.7480E+02 -1.4817E+02   1.0230E+03  0.000E+00  0.000E+00  0.000E+00  2.12101E+03  1.471E-02  3.000E+00  1.909E+03  0.000E+00  0.000E+00
   1   48   37    10    11    1.0230E+03  2.6677E+01   9.9629E+02  0.000E+00  0.000E+00  0.000E+00  2.11801E+03  1.299E-02  3.000E+00  1.909E+03  0.000E+00  0.000E+00
   1   47   36    10    12    9.9629E+02 -3.3314E+02   1.3294E+03  0.000E+00  0.000E+00  0.000E+00  2.10901E+03  1.348E-02  3.000E+00  1.630E+03  0.000E+00  0.000E+00
   1   46   36    10    13    1.3294E+03 -1.2783E+02   1.4573E+03  0.000E+00  0.000E+00  0.000E+00  2.10602E+03  1.669E-02  3.000E+00  1.350E+03  0.000E+00  0.000E+00
   1   45   36    10    14    1.4573E+03 -1.6307E+02   1.6203E+03  0.000E+00  0.000E+00  0.000E+00  2.10202E+03  1.772E-02  3.000E+00  1.350E+03  0.000E+00  0.000E+00
   1   44   36    10    15    1.6203E+03 -9.1246E+01   1.7116E+03  0.000E+00  0.000E+00  0.000E+00  2.09902E+03  1.946E-02  3.000E+00  1.350E+03  0.000E+00  0.000E+00
   1   43   36    10    16    1.7116E+03  4.9523E+00   1.7066E+03  0.000E+00  0.000E+00  0.000E+00  2.09602E+03  1.852E-02  3.000E+00  1.630E+03  0.000E+00  0.000E+00
   1   42   37    10    17    1.7066E+03  9.7776E+01   1.6089E+03  0.000E+00  0.000E+00  0.000E+00  2.09002E+03  1.530E-02  3.000E+00  1.630E+03  9.770E+01  7.215E-02
   1   41   37    10    18    1.6089E+03 -2.2654E+02   1.8354E+03  0.000E+00  0.000E+00  0.000E+00  2.08001E+03  1.479E-02  3.000E+00  1.350E+03  0.000E+00  0.000E+00
   1   40   37    10    19    1.8354E+03 -3.2613E+02   2.1615E+03  0.000E+00  0.000E+00  0.000E+00  2.07402E+03  2.034E-02  3.000E+00  1.630E+03  0.000E+00  0.000E+00
   1   39   38    10    20    2.1615E+03 -2.6720E+01   2.1883E+03  0.000E+00  0.000E+00  0.000E+00  2.07102E+03  2.307E-02  3.000E+00  1.630E+03  0.000E+00  0.000E+00
   1   38   38    10    21    2.1883E+03  2.1124E+01   2.1671E+03  0.000E+00  0.000E+00  0.000E+00  2.06702E+03  2.075E-02  3.000E+00  1.630E+03  0.000E+00  0.000E+00
   1   37   37    10    22    2.1671E+03 -2.9757E+02   2.4647E+03  0.000E+00  0.000E+00  0.000E+00  2.06102E+03  2.153E-02  3.000E+00  1.630E+03  0.000E+00  0.000E+00
   1   36   37    10    23    2.4647E+03 -2.0944E+02   2.6742E+03  0.000E+00  0.000E+00  0.000E+00  2.05702E+03  2.410E-02  3.000E+00  1.350E+03  0.000E+00  0.000E+00
   1   35   37    10    24    2.6742E+03 -5.0175E+01   2.7243E+03  0.000E+00  0.000E+00  0.000E+00  2.05402E+03  1.761E-02  3.000E+00  6.750E+02  0.000E+00  0.000E+00
   1   36   55    11     1    7.6076E+03 -4.0112E+01   7.6477E+03  0.000E+00  0.000E+00  0.000E+00  1.97604E+03  3.760E-02  3.000E+00  6.750E+02  0.000E+00  0.000E+00
   1   36   56    11     2    7.6477E+03 -6.0243E+01   7.7080E+03  0.000E+00  0.000E+00  0.000E+00  1.97506E+03  6.341E-02  3.000E+00  1.630E+03  0.000E+00  0.000E+00
   1   37   57    11     3    7.7080E+03 -1.4163E+02   7.8496E+03  0.000E+00  0.000E+00  0.000E+00  1.97306E+03  6.391E-02  3.000E+00  1.630E+03  0.000E+00  0.000E+00
   1   37   58    11     4    7.8496E+03 -9.7047E+01   7.9467E+03  0.000E+00  0.000E+00  0.000E+00  1.97208E+03  8.475E-02  3.000E+00  1.350E+03  0.000E+00  0.000E+00
   1   37   59    11     5    7.9467E+03  1.3788E+00   7.9453E+03  0.000E+00  0.000E+00  0.000E+00  1.97207E+03  6.909E-02  3.000E+00  1.350E+03  0.000E+00  0.000E+00
   1   37   60    11     6    7.9453E+03 -1.9105E+01   7.9644E+03  0.000E+00  0.000E+00  0.000E+00  1.97006E+03  5.557E-02  3.000E+00  1.630E+03  0.000E+00  0.000E+00
   1   38   61    11     7    7.9644E+03 -9.8658E+01   8.0631E+03  0.000E+00  0.000E+00  0.000E+00  1.96705E+03  5.046E-02  3.000E+00  1.630E+03  0.000E+00  0.000E+00
   1   38   62    11     8    8.0631E+03 -9.6885E+01   8.1599E+03  0.000E+00  0.000E+00  0.000E+00  1.96305E+03  4.615E-02  3.000E+00  6.750E+02  0.000E+00  0.000E+00
   1   51   11    12     1    0.0000E+00 -4.8859E+02   4.8859E+02  0.000E+00  0.000E+00  0.000E+00  2.38700E+03  4.623E-03  3.000E+00  1.909E+03  0.000E+00  0.000E+00
   1   50   12    12     2    4.8859E+02 -5.7889E+01   5.4648E+02  0.000E+00  0.000E+00  0.000E+00  2.37501E+03  6.915E-03  3.000E+00  1.630E+03  0.000E+00  0.000E+00
   1   49   12    12     3    5.4648E+02 -3.8362E+02   9.3010E+02  0.000E+00  0.000E+00  0.000E+00  2.36501E+03  8.943E-03  3.000E+00  1.630E+03  0.000E+00  0.000E+00
   1   48   13    12     4    9.3010E+02 -1.8069E+02   1.1108E+03  0.000E+00  0.000E+00  0.000E+00  2.35601E+03  1.166E-02  3.000E+00  1.630E+03  0.000E+00  0.000E+00
   1   48   14    12     5    1.1108E+03 -1.6376E+02   1.2746E+03  0.000E+00  0.000E+00  0.000E+00  2.35001E+03  1.256E-02  3.000E+00  1.630E+03  0.000E+00  0.000E+00
   1   47   15    12     6    1.2746E+03 -1.6947E+02   1.4440E+03  0.000E+00  0.000E+00  0.000E+00  2.34001E+03  1.385E-02  3.000E+00  1.630E+03  0.000E+00  0.000E+00
   1   47   16    12     7    1.4440E+03 -1.2477E+02   1.5688E+03  0.000E+00  0.000E+00  0.000E+00  2.33502E+03  1.616E-02  3.000E+00  1.630E+03  0.000E+00  0.000E+00
   1   46   17    12     8    1.5688E+03  8.2819E+01   1.4860E+03  0.000E+00  0.000E+00  0.000E+00  2.32902E+03  1.516E-02  3.000E+00  1.630E+03  0.000E+00  0.000E+00
   1   46   18    12     9    1.4860E+03  1.7371E+02   1.3123E+03  0.000E+00  0.000E+00  0.000E+00  2.32101E+03  1.171E-02  3.000E+00  1.350E+03  0.000E+00  0.000E+00
   1   46   19    12    10    1.3123E+03 -1.5814E+02   1.4704E+03  0.000E+00  0.000E+00  0.000E+00  2.30601E+03  1.327E-02  3.000E+00  1.350E+03  0.000E+00  0.000E+00
   1   46   20    12    11    1.4704E+03  9.7776E+01   1.3726E+03  0.000E+00  0.000E+00  0.000E+00  2.30601E+03  1.133E-02  3.000E+00  1.630E+03  9.773E+01  4.228E-02
   1   45   21    12    12    1.3726E+03 -4.7278E+01   1.4199E+03  0.000E+00  0.000E+00  0.000E+00  2.27401E+03  9.938E-03  3.000E+00  1.909E+03  0.000E+00  0.000E+00
   1   44   22    12    13    1.4199E+03 -1.3533E+02   1.5552E+03  0.000E+00  0.000E+00  0.000E+00  2.25001E+03  1.118E-02  3.000E+00  1.909E+03  0.000E+00  0.000E+00
   1   43   23    12    14    1.5552E+03  1.5690E+02   1.3983E+03  0.000E+00  0.000E+00  0.000E+00  2.23101E+03  1.121E-02  3.000E+00  1.909E+03  0.000E+00  0.000E+00
   1   42   24    12    15    1.3983E+03 -7.9851E+01   1.4782E+03  0.000E+00  0.000E+00  0.000E+00  2.20801E+03  1.152E-02  3.000E+00  1.630E+03  0.000E+00  0.000E+00
   1   42   25    12    16    1.4782E+03 -1.6633E+01   1.4948E+03  0.000E+00  0.000E+00  0.000E+00  2.20001E+03  1.267E-02  3.000E+00  1.350E+03  0.000E+00  0.000E+00
   1   42   26    12    17    1.4948E+03  1.2924E+02   1.3656E+03  0.000E+00  0.000E+00  0.000E+00  2.18801E+03  1.096E-02  3.000E+00  1.350E+03  0.000E+00  0.000E+00
   1   42   27    12    18    1.3656E+03 -2.5523E+02   1.6208E+03  0.000E+00  0.000E+00  0.000E+00  2.17001E+03  1.136E-02  3.000E+00  1.350E+03  0.000E+00  0.000E+00
   1   42   28    12    19    1.6208E+03 -8.2516E+01   1.7033E+03  0.000E+00  0.000E+00  0.000E+00  2.15901E+03  1.295E-02  3.000E+00  1.630E+03  0.000E+00  0.000E+00
   1   41   29    12    20    1.7033E+03  1.6541E+02   1.5379E+03  0.000E+00  0.000E+00  0.000E+00  2.14201E+03  1.286E-02  3.000E+00  1.909E+03  0.000E+00  0.000E+00
   1   40   30    12    21    1.5379E+03  6.4359E+01   1.4736E+03  0.000E+00  0.000E+00  0.000E+00  2.12701E+03  1.294E-02  3.000E+00  1.909E+03  0.000E+00  0.000E+00
   1   39   31    12    22    1.4736E+03  1.1455E+02   1.3590E+03  0.000E+00  0.000E+00  0.000E+00  2.11501E+03  1.293E-02  3.000E+00  1.909E+03  1.144E+02  1.547E-01
   1   38   32    12    23    1.3590E+03  1.1455E+02   1.2445E+03  0.000E+00  0.000E+00  0.000E+00  2.10301E+03  1.200E-02  3.000E+00  1.909E+03  1.144E+02  1.464E-01
   1   37   33    12    24    1.2445E+03  3.9276E+00   1.2405E+03  0.000E+00  0.000E+00  0.000E+00  2.08901E+03  1.166E-02  3.000E+00  1.909E+03  0.000E+00  0.000E+00
   1   36   34    12    25    1.2405E+03 -5.5300E+01   1.2958E+03  0.000E+00  0.000E+00  0.000E+00  2.07701E+03  1.009E-02  3.000E+00  9.546E+02  0.000E+00  0.000E+00
   1   38   62    13     1    8.3385E+03 -1.0389E+02   8.4424E+03  0.000E+00  0.000E+00  0.000E+00  1.96304E+03  3.578E-02  3.000E+00  6.750E+02  0.000E+00  0.000E+00
   1   38   63    13     2    8.4424E+03 -1.2687E+01   8.4551E+03  0.000E+00  0.000E+00  0.000E+00  1.96534E+03  2.339E+00  3.000E+00  1.350E+03  0.000E+00  0.000E+00
   1   38   64    13     3    8.4551E+03  1.4313E+01   8.4408E+03  0.000E+00  0.000E+00  0.000E+00  1.96534E+03  2.339E+00  3.000E+00  1.350E+03  0.000E+00  0.000E+00
   1   38   65    13     4    8.4408E+03 -3.7529E+01   8.4783E+03  0.000E+00  0.000E+00  0.000E+00  1.96306E+03  6.351E-02  3.000E+00  1.350E+03  0.000E+00  0.000E+00
   1   38   66    13     5    8.4783E+03 -7.3904E+01   8.5522E+03  0.000E+00  0.000E+00  0.000E+00  1.96005E+03  5.470E-02  3.000E+00  1.350E+03  0.000E+00  0.000E+00
   1   38   67    13     6    8.5522E+03 -4.7185E+01   8.5994E+03  0.000E+00  0.000E+00  0.000E+00  1.95805E+03  5.255E-02  3.000E+00  1.630E+03  0.000E+00  0.000E+00
   1   39   68    13     7    8.5994E+03 -1.9660E+01   8.6191E+03  0.000E+00  0.000E+00  0.000E+00  1.95305E+03  4.732E-02  3.000E+00  1.630E+03  0.000E+00  0.000E+00
   1   39   69    13     8    8.6191E+03 -7.7735E+01   8.6968E+03  0.000E+00  0.000E+00  0.000E+00  1.94805E+03  4.995E-02  3.000E+00  1.350E+03  0.000E+00  0.000E+00
   1   39   70    13     9    8.6968E+03  1.9838E+01   8.6770E+03  0.000E+00  0.000E+00  0.000E+00  1.94604E+03  4.257E-02  3.000E+00  6.750E+02  0.000E+00  0.000E+00
   1   46   61    14     1    0.0000E+00 -2.6308E+01   2.6308E+01  0.000E+00  0.000E+00  0.000E+00  2.01700E+03  8.288E-04  3.000E+00  1.350E+03  0.000E+00  0.000E+00
   1   45   61    14     2    2.6308E+01  2.6308E+01   0.0000E+00  0.000E+00  0.000E+00  0.000E+00  2.01000E+03  3.030E-04  3.000E+00  1.350E+03  0.000E+00  0.000E+00
   1   44   61    14     3    0.0000E+00  0.0000E+00   0.0000E+00  0.000E+00  0.000E+00  0.000E+00  2.00600E+03  0.000E+00  3.000E+00  1.350E+03  0.000E+00  0.000E+00
   1   43   61    14     4    0.0000E+00  0.0000E+00   0.0000E+00  0.000E+00  0.000E+00  0.000E+00  1.99900E+03  0.000E+00  3.000E+00  1.350E+03  0.000E+00  0.000E+00
   1   42   61    14     5    0.0000E+00  0.0000E+00   0.0000E+00  0.000E+00  0.000E+00  0.000E+00  1.99300E+03  0.000E+00  3.000E+00  1.350E+03  0.000E+00  0.000E+00
   1   41   61    14     6    0.0000E+00  0.0000E+00   0.0000E+00  0.000E+00  0.000E+00  0.000E+00  1.98500E+03  0.000E+00  3.000E+00  1.350E+03  0.000E+00  0.000E+00
   1   40   61    14     7    0.0000E+00 -3.8040E+01   3.8040E+01  0.000E+00  0.000E+00  0.000E+00  1.97800E+03  1.083E-03  3.000E+00  1.350E+03  0.000E+00  0.000E+00
   1   39   61    14     8    3.8040E+01  3.8040E+01   0.0000E+00  0.000E+00  0.000E+00  0.000E+00  1.97300E+03  3.645E-04  3.000E+00  1.630E+03  0.000E+00  0.000E+00
   1   38   62    14     9    0.0000E+00 -1.7859E+02   1.7859E+02  0.000E+00  0.000E+00  0.000E+00  1.96300E+03  2.603E-03  3.000E+00  9.546E+02  0.000E+00  0.000E+00
   1   39   70    15     1    9.1779E+03  1.5850E+01   9.1621E+03  0.000E+00  0.000E+00  0.000E+00  1.94604E+03  3.667E-02  3.000E+00  6.750E+02  0.000E+00  0.000E+00
   1   39   71    15     2    9.1621E+03 -1.0734E+02   9.2694E+03  0.000E+00  0.000E+00  0.000E+00  1.94206E+03  6.069E-02  3.000E+00  1.630E+03  0.000E+00  0.000E+00
   1   40   72    15     3    9.2694E+03 -3.0514E+01   9.2999E+03  0.000E+00  0.000E+00  0.000E+00  1.94107E+03  6.518E-02  3.000E+00  1.630E+03  0.000E+00  0.000E+00
   1   40   73    15     4    9.2999E+03 -4.6440E+01   9.3464E+03  0.000E+00  0.000E+00  0.000E+00  1.93806E+03  5.776E-02  3.000E+00  1.350E+03  0.000E+00  0.000E+00
   1   40   74    15     5    9.3464E+03 -2.1322E+01   9.3677E+03  0.000E+00  0.000E+00  0.000E+00  1.93606E+03  6.189E-02  3.000E+00  1.350E+03  0.000E+00  0.000E+00
   1   40   75    15     6    9.3677E+03  2.8757E-01   9.3674E+03  0.000E+00  0.000E+00  0.000E+00  1.93405E+03  5.484E-02  3.000E+00  6.750E+02  0.000E+00  0.000E+00
   1   40   75    16     1    1.0240E+04 -3.2251E+00   1.0243E+04  0.000E+00  0.000E+00  0.000E+00  1.93405E+03  4.964E-02  3.000E+00  6.750E+02  0.000E+00  0.000E+00
   1   40   76    16     2    1.0243E+04  0.0000E+00   1.0243E+04  0.000E+00  0.000E+00  0.000E+00  1.93307E+03  7.124E-02  3.000E+00  0.000E+00  0.000E+00  0.000E+00
   1   55   73    17     1    0.0000E+00 -6.2592E+00   6.2592E+00  0.000E+00  0.000E+00  0.000E+00  2.04100E+03  3.115E-04  3.000E+00  1.350E+03  0.000E+00  0.000E+00
   1   54   73    17     2    6.2592E+00  6.2592E+00   0.0000E+00  0.000E+00  0.000E+00  0.000E+00  2.02900E+03  1.013E-04  3.000E+00  1.350E+03  0.000E+00  0.000E+00
   1   53   73    17     3    0.0000E+00  0.0000E+00   0.0000E+00  0.000E+00  0.000E+00  0.000E+00  2.01700E+03  0.000E+00  3.000E+00  1.350E+03  0.000E+00  0.000E+00
   1   52   73    17     4    0.0000E+00 -5.5155E+01   5.5155E+01  0.000E+00  0.000E+00  0.000E+00  2.01000E+03  1.247E-03  3.000E+00  1.630E+03  0.000E+00  0.000E+00
   1   51   72    17     5    5.5155E+01 -2.4513E+02   3.0028E+02  0.000E+00  0.000E+00  0.000E+00  1.99800E+03  3.935E-03  3.000E+00  1.630E+03  0.000E+00  0.000E+00
   1   50   72    17     6    3.0028E+02 -1.6372E+01   3.1665E+02  0.000E+00  0.000E+00  0.000E+00  1.99301E+03  5.748E-03  3.000E+00  1.350E+03  0.000E+00  0.000E+00
   1   49   72    17     7    3.1665E+02 -8.1940E+01   3.9859E+02  0.000E+00  0.000E+00  0.000E+00  1.98601E+03  5.996E-03  3.000E+00  1.350E+03  0.000E+00  0.000E+00
   1   48   72    17     8    3.9859E+02 -1.2070E+02   5.1929E+02  0.000E+00  0.000E+00  0.000E+00  1.97901E+03  6.964E-03  3.000E+00  1.350E+03  0.000E+00  0.000E+00
   1   47   72    17     9    5.1929E+02 -1.8426E+02   7.0356E+02  0.000E+00  0.000E+00  0.000E+00  1.97201E+03  8.458E-03  3.000E+00  1.350E+03  0.000E+00  0.000E+00
   1   46   72    17    10    7.0356E+02 -1.9151E+01   7.2271E+02  0.000E+00  0.000E+00  0.000E+00  1.96601E+03  9.502E-03  3.000E+00  1.350E+03  0.000E+00  0.000E+00
   1   45   72    17    11    7.2271E+02 -4.7611E+00   7.2747E+02  0.000E+00  0.000E+00  0.000E+00  1.96001E+03  9.695E-03  3.000E+00  1.630E+03  0.000E+00  0.000E+00
   1   44   73    17    12    7.2747E+02 -1.9026E+01   7.4650E+02  0.000E+00  0.000E+00  0.000E+00  1.95201E+03  1.001E-02  3.000E+00  1.630E+03  0.000E+00  0.000E+00
   1   43   73    17    13    7.4650E+02 -3.9142E+01   7.8564E+02  0.000E+00  0.000E+00  0.000E+00  1.94701E+03  1.120E-02  3.000E+00  1.350E+03  0.000E+00  0.000E+00
   1   42   73    17    14    7.8564E+02 -4.1104E+00   7.8975E+02  0.000E+00  0.000E+00  0.000E+00  1.94401E+03  1.163E-02  3.000E+00  1.630E+03  0.000E+00  0.000E+00
   1   41   74    17    15    7.8975E+02 -4.3015E+01   8.3276E+02  0.000E+00  0.000E+00  0.000E+00  1.93801E+03  1.203E-02  3.000E+00  1.909E+03  0.000E+00  0.000E+00
   1   40   75    17    16    8.3276E+02 -4.0110E+01   8.7287E+02  0.000E+00  0.000E+00  0.000E+00  1.93401E+03  1.240E-02  3.000E+00  9.546E+02  0.000E+00  0.000E+00
   1   37   55    18     1    0.0000E+00  0.0000E+00   0.0000E+00  0.000E+00  0.000E+00  0.000E+00  2.00700E+03  0.000E+00  3.000E+00  1.630E+03  0.000E+00  0.000E+00
   1   36   54    19     1    0.0000E+00  0.0000E+00   0.0000E+00  0.000E+00  0.000E+00  0.000E+00  2.00700E+03  0.000E+00  3.000E+00  1.630E+03  0.000E+00  0.000E+00



1
  VOLUMETRIC BUDGET FOR UNSATURATED ZONE BENEATH STREAMS AT END OF TIME STEP     1 STRESS PERIOD   8
  ------------------------------------------------------------------------------------------------

    CUMULATIVE VOLUMES             L**3    RATES FOR THIS TIME STEP         L**3/T
    ------------------                     ------------------------


          STREAM LOSS =       194242.6094            STREAM LOSS =          976.7496
    CHANGE IN STORAGE =            0.8846      CHANGE IN STORAGE =            1.6691
       RECHARGE TO GW =       194240.9688         RECHARGE TO GW =          975.0807

             TOTAL IN =       194242.6094               TOTAL IN =          976.7496

            TOTAL OUT =       194241.8594              TOTAL OUT =          976.7498

             IN - OUT =            0.7500               IN - OUT =       -1.2207E-04

  PERCENT DISCREPANCY =            0.00      PERCENT DISCREPANCY =            -0.00



 ***WARNING***NUZTOP IS 3 AND ALL LAYERS  IN ROW           39  AND COLUMN           76  ARE INACTIVE.
 UNSATURATED FLOW WILL NOT BE ADDED TO ANY LAYER-- SOME WATER MAY FLOW PAST LOWEST LAYER
 ***WARNING***NUZTOP IS 3 AND ALL LAYERS  IN ROW           40  AND COLUMN           76  ARE INACTIVE.
 UNSATURATED FLOW WILL NOT BE ADDED TO ANY LAYER-- SOME WATER MAY FLOW PAST LOWEST LAYER


UNSATURATED ZONE PACKAGE VOLUMETRIC BUDGET FOR  TIME STEP     1 STRESS PERIOD    8
  ------------------------------------------------------------------------------



     CUMULATIVE VOLUMES      L**3       RATES FOR THIS TIME STEP      L**3/T
     ------------------                 ------------------------

           IN:                                      IN:
           ---                                      ---
        INFILTRATION =       26653.0419          INFILTRATION =       0.0000E+00

          OUT:                                     OUT:
          ----                                     ----
              UZF ET =      658120.1547                UZF ET =           0.8633
        UZF RECHARGE =     2784429.2613          UZF RECHARGE =        8067.4582

            IN - OUT =    -3415896.3740              IN - OUT =       -8068.3215

          STORAGE:                                 STORAGE:
          --------                                 --------
      STORAGE CHANGE =    -3413915.6776        STORAGE CHANGE =       -8068.3215

 PERCENT DISCREPANCY IS DIFFERENCE BETWEEN IN-OUT MINUS CHANGE IN STORAGE
 DIVIDED BY THE AVERAGE OF IN AND OUT TIMES 100

 PERCENT DISCREPANCY =          -0.01     PERCENT DISCREPANCY =           0.00








        GW IRRIGATION     PERIOD    8   STEP   1

1
  VOLUMETRIC BUDGET FOR AGRICULTURAL FIELDS AT  END OF TIME STEP    1, STRESS PERIOD   8
  ------------------------------------------------------------------------------

     CUMULATIVE VOLUMES      L**3       RATES FOR THIS TIME STEP      L**3/T
     ------------------                 ------------------------

           IN:                                      IN:
           ---                                      ---
               AG WELLS  =           0.0000                 AG WELLS  =          -0.0000
      DIVERSION SEGMENTS =           0.0000        DIVERSION SEGMENTS =           0.0000
       IRRIGATION PONDS  =           0.0000         IRRIGATION PONDS  =           0.0000
           GW IRRIGATION =           0.0000             GW IRRIGATION =           0.0000
           SW IRRIGATION =           0.0000             SW IRRIGATION =           0.0000
        SYSTEM LOSSES GW =           0.0000          SYSTEM LOSSES GW =           0.0000
        SYSTEM LOSSES SW =           0.0000          SYSTEM LOSSES SW =          -0.0000

                TOTAL IN =           0.0000                  TOTAL IN =           0.0000

          OUT:                                     OUT:
          ----                                     ----
               AG WELLS  =           0.0000                 AG WELLS  =           0.0000
      DIVERSION SEGMENTS =           0.0000        DIVERSION SEGMENTS =           0.0000
       IRRIGATION PONDS  =           0.0000         IRRIGATION PONDS  =           0.0000
           GW IRRIGATION =           0.0000             GW IRRIGATION =           0.0000
           SW IRRIGATION =           0.0000             SW IRRIGATION =           0.0000
        SYSTEM LOSSES GW =           0.0000          SYSTEM LOSSES GW =           0.0000
        SYSTEM LOSSES SW =           0.0000          SYSTEM LOSSES SW =           0.0000

               TOTAL OUT =           0.0000                 TOTAL OUT =           0.0000

                IN - OUT =           0.0000                  IN - OUT =           0.0000

     PERCENT DISCREPANCY =           0.00         PERCENT DISCREPANCY =           0.00




 HEAD WILL BE SAVED ON UNIT   58 AT END OF TIME STEP    1, STRESS PERIOD    8
1
  VOLUMETRIC BUDGET FOR ENTIRE MODEL AT END OF TIME STEP    1, STRESS PERIOD   8
  ------------------------------------------------------------------------------

     CUMULATIVE VOLUMES      L**3       RATES FOR THIS TIME STEP      L**3/T
     ------------------                 ------------------------

           IN:                                      IN:
           ---                                      ---
             STORAGE     =      795855.3125               STORAGE     =        8966.8037
       CONSTANT HEAD     =          61.6558         CONSTANT HEAD     =           1.0856
      STREAM LEAKAGE     =      481483.1562        STREAM LEAKAGE     =        2669.0186
        UZF RECHARGE     =     2784443.7500          UZF RECHARGE     =        8067.4570
               GW ET     =           0.0000                 GW ET     =           0.0000
     SURFACE LEAKAGE     =           0.0000       SURFACE LEAKAGE     =           0.0000
           AG WELLS      =           0.0000             AG WELLS      =           0.0000

                TOTAL IN =     4061844.0000                  TOTAL IN =       19704.3652

          OUT:                                     OUT:
          ----                                     ----
             STORAGE     =     1112313.1250               STORAGE     =        1197.4097
       CONSTANT HEAD     =        6548.2725         CONSTANT HEAD     =          34.3810
      STREAM LEAKAGE     =     2367976.2500        STREAM LEAKAGE     =       12909.8262
        UZF RECHARGE     =           0.0000          UZF RECHARGE     =           0.0000
               GW ET     =      551333.8125                 GW ET     =        5410.9829
     SURFACE LEAKAGE     =       24231.1934       SURFACE LEAKAGE     =         156.5431
           AG WELLS      =           0.0000             AG WELLS      =           0.0000

               TOTAL OUT =     4062402.5000                 TOTAL OUT =       19709.1426

                IN - OUT =        -558.5000                  IN - OUT =          -4.7773

     PERCENT DISCREPANCY =          -0.01         PERCENT DISCREPANCY =          -0.02






         TIME SUMMARY AT END OF TIME STEP    1 IN STRESS PERIOD    8
                    SECONDS     MINUTES      HOURS       DAYS        YEARS
                    -----------------------------------------------------------
   TIME STEP LENGTH  86400.      1440.0      24.000      1.0000     2.73785E-03
 STRESS PERIOD TIME  86400.      1440.0      24.000      1.0000     2.73785E-03
         TOTAL TIME 1.58976E+07 2.64960E+05  4416.0      184.00     0.50376    
1
                                                   Max.-Head-Change                         Max.-Flux-Residual
  Residual-Control   Outer-Iter.   Inner-Iter.     Column Row Layer    Maximum-Head-Change  Column Row Layer    Maximum-Flux-Residual          L2-NORM 
          0                 1           5            62   32     1       0.4621369058E+00       4   48    1        -0.1696141390E+02      0.2000035439E+03
          0                 2           4            29   34     1       0.2196371219E+00       5   49    1        -0.4966138587E+01      0.4495391865E+02
          0                 3           2             7   45     1      -0.3219561998E-02      63   38    1        -0.3935900263E+01      0.1795924061E+02
          0                 4           2            63   38     1      -0.4976743020E-02      63   38    1        -0.7337161710E+01      0.1239664119E+02
          0                 5           2            64   38     1      -0.2362698642E-02      64   38    1        -0.3482394578E+01      0.5641663510E+01
          0                 6           1            64   38     1      -0.7984890416E-03      64   38    1        -0.1181359085E+01      0.2176438600E+01

    ------------------------------------------------
       NWT REQUIRED            6 OUTER ITERATIONS 
       AND A TOTAL OF         16 INNER ITERATIONS.
    ------------------------------------------------

 NO OUTPUT CONTROL FOR STRESS PERIOD    8   TIME STEP    2
 ***WARNING***NUZTOP IS 3 AND ALL LAYERS  IN ROW           39  AND COLUMN           76  ARE INACTIVE.
 UNSATURATED FLOW WILL NOT BE ADDED TO ANY LAYER-- SOME WATER MAY FLOW PAST LOWEST LAYER
 ***WARNING***NUZTOP IS 3 AND ALL LAYERS  IN ROW           40  AND COLUMN           76  ARE INACTIVE.
 UNSATURATED FLOW WILL NOT BE ADDED TO ANY LAYER-- SOME WATER MAY FLOW PAST LOWEST LAYER
                                                   Max.-Head-Change                         Max.-Flux-Residual
  Residual-Control   Outer-Iter.   Inner-Iter.     Column Row Layer    Maximum-Head-Change  Column Row Layer    Maximum-Flux-Residual          L2-NORM 
          0                 1           6            68   48     1      -0.1412063726E+01      39   59    1        -0.2154765917E+02      0.2393424865E+03
          0                 2           4            67   57     1       0.2937551086E+00      71   61    1         0.2088453293E+03      0.5128101673E+03
          0                 3           3            64   38     1      -0.1729195288E-01      64   38    1        -0.2436714197E+02      0.4526099636E+02
          0                 4           3            63   38     1      -0.1972216520E-01      63   38    1        -0.2787043340E+02      0.4000193648E+02
          0                 5           2            64   38     1      -0.8624396282E-02      64   38    1        -0.1222002351E+02      0.1549747931E+02
          0                 6           2            64   38     1      -0.2452355963E-02      64   38    1        -0.3486327922E+01      0.4337465858E+01
          0                 7           1            64   38     1      -0.5341475453E-03      64   38    1        -0.7609792562E+00      0.1203046271E+01

    ------------------------------------------------
       NWT REQUIRED            7 OUTER ITERATIONS 
       AND A TOTAL OF         21 INNER ITERATIONS.
    ------------------------------------------------

 NO OUTPUT CONTROL FOR STRESS PERIOD    8   TIME STEP    3
 ***WARNING***NUZTOP IS 3 AND ALL LAYERS  IN ROW           39  AND COLUMN           76  ARE INACTIVE.
 UNSATURATED FLOW WILL NOT BE ADDED TO ANY LAYER-- SOME WATER MAY FLOW PAST LOWEST LAYER
 ***WARNING***NUZTOP IS 3 AND ALL LAYERS  IN ROW           40  AND COLUMN           76  ARE INACTIVE.
 UNSATURATED FLOW WILL NOT BE ADDED TO ANY LAYER-- SOME WATER MAY FLOW PAST LOWEST LAYER
                                                   Max.-Head-Change                         Max.-Flux-Residual
  Residual-Control   Outer-Iter.   Inner-Iter.     Column Row Layer    Maximum-Head-Change  Column Row Layer    Maximum-Flux-Residual          L2-NORM 
          0                 1           6            68   48     1      -0.1940782059E+01      39   59    1        -0.4018762947E+02      0.3295742507E+03
          0                 2           5            68   47     1       0.1144230942E+01      68   47    1         0.8969759952E+03      0.2428198542E+04
          0                 3           4            67   50     1       0.3097498843E+00      68   47    1         0.4357276848E+02      0.1317768194E+03
          0                 4           3            63   38     1      -0.2751720214E-01      63   38    1        -0.3888592787E+02      0.5557072615E+02
          0                 5           3            64   38     1      -0.1214678753E-01      64   38    1        -0.1721217151E+02      0.2153408311E+02
          0                 6           2            64   38     1      -0.3495643808E-02      64   38    1        -0.4969800390E+01      0.5939189637E+01
          0                 7           1            64   38     1      -0.7748632045E-03      64   38    1        -0.1103936676E+01      0.1508399704E+01

    ------------------------------------------------
       NWT REQUIRED            7 OUTER ITERATIONS 
       AND A TOTAL OF         24 INNER ITERATIONS.
    ------------------------------------------------

 NO OUTPUT CONTROL FOR STRESS PERIOD    8   TIME STEP    4
 ***WARNING***NUZTOP IS 3 AND ALL LAYERS  IN ROW           39  AND COLUMN           76  ARE INACTIVE.
 UNSATURATED FLOW WILL NOT BE ADDED TO ANY LAYER-- SOME WATER MAY FLOW PAST LOWEST LAYER
 ***WARNING***NUZTOP IS 3 AND ALL LAYERS  IN ROW           40  AND COLUMN           76  ARE INACTIVE.
 UNSATURATED FLOW WILL NOT BE ADDED TO ANY LAYER-- SOME WATER MAY FLOW PAST LOWEST LAYER
                                                   Max.-Head-Change                         Max.-Flux-Residual
  Residual-Control   Outer-Iter.   Inner-Iter.     Column Row Layer    Maximum-Head-Change  Column Row Layer    Maximum-Flux-Residual          L2-NORM 
          0                 1           5            25   33     2      -0.5577382418E+00      46   42    1        -0.6570615038E+02      0.3702192684E+03
          0                 2           4            52   56     1       0.2986437793E+00      52   56    1         0.2040980087E+03      0.3317800091E+03
          0                 3           2            52   56     1       0.1193079948E-01      64   38    1        -0.9603829765E+01      0.2644167661E+02
          0                 4           2            63   38     1      -0.6991734290E-02      63   38    1        -0.9875748350E+01      0.1607892190E+02
          0                 5           2            64   38     1      -0.3286771899E-02      64   38    1        -0.4655035235E+01      0.6847237145E+01
          0                 6           1            64   38     1      -0.9989172625E-03      64   38    1        -0.1419851113E+01      0.2402883926E+01

    ------------------------------------------------
       NWT REQUIRED            6 OUTER ITERATIONS 
       AND A TOTAL OF         16 INNER ITERATIONS.
    ------------------------------------------------

 NO OUTPUT CONTROL FOR STRESS PERIOD    8   TIME STEP    5
 ***WARNING***NUZTOP IS 3 AND ALL LAYERS  IN ROW           39  AND COLUMN           76  ARE INACTIVE.
 UNSATURATED FLOW WILL NOT BE ADDED TO ANY LAYER-- SOME WATER MAY FLOW PAST LOWEST LAYER
 ***WARNING***NUZTOP IS 3 AND ALL LAYERS  IN ROW           40  AND COLUMN           76  ARE INACTIVE.
 UNSATURATED FLOW WILL NOT BE ADDED TO ANY LAYER-- SOME WATER MAY FLOW PAST LOWEST LAYER
                                                   Max.-Head-Change                         Max.-Flux-Residual
  Residual-Control   Outer-Iter.   Inner-Iter.     Column Row Layer    Maximum-Head-Change  Column Row Layer    Maximum-Flux-Residual          L2-NORM 
          0                 1           5             4   58     1       0.6295973858E+00      46   42    1        -0.6794571946E+02      0.3468422408E+03
          0                 2           4            28   34     1       0.2121022583E+00      63   38    1         0.2028959568E+02      0.5649687668E+02
          0                 3           3            64   38     1       0.1188230595E-01      64   38    1         0.1675373631E+02      0.3070441350E+02
          0                 4           3            63   38     1       0.1335338327E-01      63   38    1         0.1886862560E+02      0.2770246115E+02
          0                 5           2            64   38     1       0.6000940319E-02      64   38    1         0.8499250693E+01      0.1111112731E+02
          0                 6           2            64   38     1       0.1754956178E-02      64   38    1         0.2493106647E+01      0.3349836921E+01
          0                 7           1            64   38     1       0.3951632232E-03      64   38    1         0.5623861012E+00      0.1079451891E+01

    ------------------------------------------------
       NWT REQUIRED            7 OUTER ITERATIONS 
       AND A TOTAL OF         20 INNER ITERATIONS.
    ------------------------------------------------

 NO OUTPUT CONTROL FOR STRESS PERIOD    8   TIME STEP    6
 ***WARNING***NUZTOP IS 3 AND ALL LAYERS  IN ROW           39  AND COLUMN           76  ARE INACTIVE.
 UNSATURATED FLOW WILL NOT BE ADDED TO ANY LAYER-- SOME WATER MAY FLOW PAST LOWEST LAYER
 ***WARNING***NUZTOP IS 3 AND ALL LAYERS  IN ROW           40  AND COLUMN           76  ARE INACTIVE.
 UNSATURATED FLOW WILL NOT BE ADDED TO ANY LAYER-- SOME WATER MAY FLOW PAST LOWEST LAYER
                                                   Max.-Head-Change                         Max.-Flux-Residual
  Residual-Control   Outer-Iter.   Inner-Iter.     Column Row Layer    Maximum-Head-Change  Column Row Layer    Maximum-Flux-Residual          L2-NORM 
          0                 1           6            25   33     1       0.2191711631E+01      46   42    1        -0.4177077061E+02      0.3398212581E+03
          0                 2           6            52   56     1       0.2600220124E+01      63   38    1         0.8614533283E+02      0.1687353987E+03
          0                 3           3            64   38     1       0.4905626651E-01      64   38    1         0.6917190937E+02      0.1035834217E+03
          0                 4           3            63   38     1       0.5187434895E-01      63   38    1         0.7328700910E+02      0.1042768176E+03
          0                 5           3            64   38     1       0.2230565809E-01      64   38    1         0.3160914497E+02      0.3903308572E+02
          0                 6           2            64   38     1       0.6175161765E-02      64   38    1         0.8777822086E+01      0.1016677907E+02
          0                 7           2            64   38     1       0.1317488607E-02      64   38    1         0.1876096648E+01      0.2255245262E+01
          0                 8           1            64   38     1       0.2373748025E-03      64   38    1         0.3383058253E+00      0.5888538924E+00

    ------------------------------------------------
       NWT REQUIRED            8 OUTER ITERATIONS 
       AND A TOTAL OF         26 INNER ITERATIONS.
    ------------------------------------------------

 NO OUTPUT CONTROL FOR STRESS PERIOD    8   TIME STEP    7
 ***WARNING***NUZTOP IS 3 AND ALL LAYERS  IN ROW           39  AND COLUMN           76  ARE INACTIVE.
 UNSATURATED FLOW WILL NOT BE ADDED TO ANY LAYER-- SOME WATER MAY FLOW PAST LOWEST LAYER
 ***WARNING***NUZTOP IS 3 AND ALL LAYERS  IN ROW           40  AND COLUMN           76  ARE INACTIVE.
 UNSATURATED FLOW WILL NOT BE ADDED TO ANY LAYER-- SOME WATER MAY FLOW PAST LOWEST LAYER
                                                   Max.-Head-Change                         Max.-Flux-Residual
  Residual-Control   Outer-Iter.   Inner-Iter.     Column Row Layer    Maximum-Head-Change  Column Row Layer    Maximum-Flux-Residual          L2-NORM 
          0                 1           6            61   34     1       0.1068626131E+01      67   49    1         0.1797098740E+02      0.2167720081E+03
          0                 2           4            67   49     1       0.1271543285E+01      63   38    1        -0.2539304602E+02      0.6328083058E+02
          0                 3           3            41   29     1       0.5144368354E-01      64   38    1        -0.2103905895E+02      0.3513124984E+02
          0                 4           3            63   38     1      -0.1497077457E-01      63   38    1        -0.2114298436E+02      0.3096100114E+02
          0                 5           2            64   38     1      -0.6618201889E-02      64   38    1        -0.9372611275E+01      0.1208330572E+02
          0                 6           2            64   38     1      -0.1896664599E-02      64   38    1        -0.2693892973E+01      0.3516736954E+01
          0                 7           1            64   38     1      -0.4203922324E-03      64   38    1        -0.5981535430E+00      0.1075797769E+01

    ------------------------------------------------
       NWT REQUIRED            7 OUTER ITERATIONS 
       AND A TOTAL OF         21 INNER ITERATIONS.
    ------------------------------------------------

 NO OUTPUT CONTROL FOR STRESS PERIOD    8   TIME STEP    8
 ***WARNING***NUZTOP IS 3 AND ALL LAYERS  IN ROW           39  AND COLUMN           76  ARE INACTIVE.
 UNSATURATED FLOW WILL NOT BE ADDED TO ANY LAYER-- SOME WATER MAY FLOW PAST LOWEST LAYER
 ***WARNING***NUZTOP IS 3 AND ALL LAYERS  IN ROW           40  AND COLUMN           76  ARE INACTIVE.
 UNSATURATED FLOW WILL NOT BE ADDED TO ANY LAYER-- SOME WATER MAY FLOW PAST LOWEST LAYER
                                                   Max.-Head-Change                         Max.-Flux-Residual
  Residual-Control   Outer-Iter.   Inner-Iter.     Column Row Layer    Maximum-Head-Change  Column Row Layer    Maximum-Flux-Residual          L2-NORM 
          0                 1           6            52   57     1      -0.8564896788E+00       4   48    1        -0.1683192540E+02      0.2300792941E+03
          0                 2           3            61   30     1       0.5815137313E-01      63   38    1        -0.2879114364E+02      0.6619247264E+02
          0                 3           3            64   38     1      -0.1661870798E-01      64   38    1        -0.2342517779E+02      0.3908194589E+02
          0                 4           3            63   38     1      -0.1721041730E-01      63   38    1        -0.2431317371E+02      0.3539528695E+02
          0                 5           2            64   38     1      -0.7528030664E-02      64   38    1        -0.1066743101E+02      0.1362406615E+02
          0                 6           2            64   38     1      -0.2131429401E-02      64   38    1        -0.3030180605E+01      0.3868361000E+01
          0                 7           1            64   38     1      -0.4661773498E-03      64   38    1        -0.6641025004E+00      0.1135657903E+01

    ------------------------------------------------
       NWT REQUIRED            7 OUTER ITERATIONS 
       AND A TOTAL OF         20 INNER ITERATIONS.
    ------------------------------------------------

 NO OUTPUT CONTROL FOR STRESS PERIOD    8   TIME STEP    9
 ***WARNING***NUZTOP IS 3 AND ALL LAYERS  IN ROW           39  AND COLUMN           76  ARE INACTIVE.
 UNSATURATED FLOW WILL NOT BE ADDED TO ANY LAYER-- SOME WATER MAY FLOW PAST LOWEST LAYER
 ***WARNING***NUZTOP IS 3 AND ALL LAYERS  IN ROW           40  AND COLUMN           76  ARE INACTIVE.
 UNSATURATED FLOW WILL NOT BE ADDED TO ANY LAYER-- SOME WATER MAY FLOW PAST LOWEST LAYER
                                                   Max.-Head-Change                         Max.-Flux-Residual
  Residual-Control   Outer-Iter.   Inner-Iter.     Column Row Layer    Maximum-Head-Change  Column Row Layer    Maximum-Flux-Residual          L2-NORM 
          0                 1           7            68   49     1       0.2569452346E+01       4   48    1        -0.1681362616E+02      0.3120258485E+03
          0                 2           5            68   47     1       0.3049503027E+01      63   38    1         0.8670289893E+02      0.1607637554E+03
          0                 3           3            64   38     1       0.4626694918E-01      64   38    1         0.6525870909E+02      0.9891070120E+02
          0                 4           3            63   38     1       0.4472460799E-01      63   38    1         0.6316694537E+02      0.9093807140E+02
          0                 5           3            64   38     1       0.1988339822E-01      64   38    1         0.2816610449E+02      0.3521329161E+02
          0                 6           2            64   38     1       0.5607266622E-02      64   38    1         0.7968572110E+01      0.9327656280E+01
          0                 7           2            64   38     1       0.1205674658E-02      64   38    1         0.1716594420E+01      0.2102919002E+01
          0                 8           1            64   38     1       0.2175563529E-03      64   38    1         0.3100238947E+00      0.5672999768E+00

    ------------------------------------------------
       NWT REQUIRED            8 OUTER ITERATIONS 
       AND A TOTAL OF         26 INNER ITERATIONS.
    ------------------------------------------------

 NO OUTPUT CONTROL FOR STRESS PERIOD    8   TIME STEP   10
 ***WARNING***NUZTOP IS 3 AND ALL LAYERS  IN ROW           39  AND COLUMN           76  ARE INACTIVE.
 UNSATURATED FLOW WILL NOT BE ADDED TO ANY LAYER-- SOME WATER MAY FLOW PAST LOWEST LAYER
 ***WARNING***NUZTOP IS 3 AND ALL LAYERS  IN ROW           40  AND COLUMN           76  ARE INACTIVE.
 UNSATURATED FLOW WILL NOT BE ADDED TO ANY LAYER-- SOME WATER MAY FLOW PAST LOWEST LAYER
                                                   Max.-Head-Change                         Max.-Flux-Residual
  Residual-Control   Outer-Iter.   Inner-Iter.     Column Row Layer    Maximum-Head-Change  Column Row Layer    Maximum-Flux-Residual          L2-NORM 
          0                 1           5            67   49     2       0.7871331113E+00      46   42    1         0.3621544551E+02      0.2405221789E+03
          0                 2           5            69   48     1       0.2005545141E+01      23   52    1         0.1874868848E+02      0.5757195689E+02
          0                 3           2            62   32     1      -0.7671704269E-02      63   38    1        -0.2792907489E+01      0.1766588183E+02
          0                 4           2             3   53     1      -0.1621048138E-02       3   53    1        -0.1053022145E+01      0.7522166520E+01
          0                 5           1             3   53     1      -0.8565579396E-03       3   53    1        -0.5564526903E+00      0.3493700360E+01

    ------------------------------------------------
       NWT REQUIRED            5 OUTER ITERATIONS 
       AND A TOTAL OF         15 INNER ITERATIONS.
    ------------------------------------------------

 NO OUTPUT CONTROL FOR STRESS PERIOD    8   TIME STEP   11
 ***WARNING***NUZTOP IS 3 AND ALL LAYERS  IN ROW           39  AND COLUMN           76  ARE INACTIVE.
 UNSATURATED FLOW WILL NOT BE ADDED TO ANY LAYER-- SOME WATER MAY FLOW PAST LOWEST LAYER
 ***WARNING***NUZTOP IS 3 AND ALL LAYERS  IN ROW           40  AND COLUMN           76  ARE INACTIVE.
 UNSATURATED FLOW WILL NOT BE ADDED TO ANY LAYER-- SOME WATER MAY FLOW PAST LOWEST LAYER
                                                   Max.-Head-Change                         Max.-Flux-Residual
  Residual-Control   Outer-Iter.   Inner-Iter.     Column Row Layer    Maximum-Head-Change  Column Row Layer    Maximum-Flux-Residual          L2-NORM 
          0                 1           6            31   56     1       0.8020580146E+00      46   42    1         0.3344809161E+02      0.2297093723E+03
          0                 2           4            27   33     1       0.8496616177E+00      63   38    1        -0.2136172117E+02      0.5925791622E+02
          0                 3           3            27   34     1       0.1002803799E-01      64   38    1        -0.1250379151E+02      0.2553314471E+02
          0                 4           2            64   38     1      -0.6661454479E-02      64   38    1        -0.9395768836E+01      0.1535133566E+02
          0                 5           2            64   38     1      -0.2555540013E-02      64   38    1        -0.3624753827E+01      0.5655876209E+01
          0                 6           1            64   38     1      -0.6467310081E-03      64   38    1        -0.9201912128E+00      0.2012763831E+01

    ------------------------------------------------
       NWT REQUIRED            6 OUTER ITERATIONS 
       AND A TOTAL OF         18 INNER ITERATIONS.
    ------------------------------------------------

 NO OUTPUT CONTROL FOR STRESS PERIOD    8   TIME STEP   12
 ***WARNING***NUZTOP IS 3 AND ALL LAYERS  IN ROW           39  AND COLUMN           76  ARE INACTIVE.
 UNSATURATED FLOW WILL NOT BE ADDED TO ANY LAYER-- SOME WATER MAY FLOW PAST LOWEST LAYER
 ***WARNING***NUZTOP IS 3 AND ALL LAYERS  IN ROW           40  AND COLUMN           76  ARE INACTIVE.
 UNSATURATED FLOW WILL NOT BE ADDED TO ANY LAYER-- SOME WATER MAY FLOW PAST LOWEST LAYER
                                                   Max.-Head-Change                         Max.-Flux-Residual
  Residual-Control   Outer-Iter.   Inner-Iter.     Column Row Layer    Maximum-Head-Change  Column Row Layer    Maximum-Flux-Residual          L2-NORM 
          0                 1           7            68   48     1      -0.2926848759E+01      46   42    1         0.1881328359E+02      0.2709127965E+03
          0                 2           4            62   31     1       0.6260483941E+00      62   31    1         0.4888835807E+03      0.6145428461E+03
          0                 3           3            62   31     1       0.3481507487E-01      63   38    1        -0.4848801713E+02      0.8069044505E+02
          0                 4           3            63   38     1      -0.3724157526E-01      63   38    1        -0.5262009042E+02      0.7487168560E+02
          0                 5           3            64   38     1      -0.1618359893E-01      64   38    1        -0.2293221393E+02      0.2848365890E+02
          0                 6           2            64   38     1      -0.4570903558E-02      64   38    1        -0.6497798950E+01      0.7625009761E+01
          0                 7           1            64   38     1      -0.9963372377E-03      64   38    1        -0.1419143837E+01      0.1795819994E+01

    ------------------------------------------------
       NWT REQUIRED            7 OUTER ITERATIONS 
       AND A TOTAL OF         23 INNER ITERATIONS.
    ------------------------------------------------

 NO OUTPUT CONTROL FOR STRESS PERIOD    8   TIME STEP   13
 ***WARNING***NUZTOP IS 3 AND ALL LAYERS  IN ROW           39  AND COLUMN           76  ARE INACTIVE.
 UNSATURATED FLOW WILL NOT BE ADDED TO ANY LAYER-- SOME WATER MAY FLOW PAST LOWEST LAYER
 ***WARNING***NUZTOP IS 3 AND ALL LAYERS  IN ROW           40  AND COLUMN           76  ARE INACTIVE.
 UNSATURATED FLOW WILL NOT BE ADDED TO ANY LAYER-- SOME WATER MAY FLOW PAST LOWEST LAYER
                                                   Max.-Head-Change                         Max.-Flux-Residual
  Residual-Control   Outer-Iter.   Inner-Iter.     Column Row Layer    Maximum-Head-Change  Column Row Layer    Maximum-Flux-Residual          L2-NORM 
          0                 1           6            67   49     2      -0.7751666479E+00      39   59    1        -0.2077590417E+02      0.2259636559E+03
          0                 2           3            23   33     1       0.1347594193E+00      69   48    1         0.1010072839E+03      0.1662500748E+03
          0                 3           2            23   33     1       0.5387457170E-02      69   48    1         0.4033258833E+01      0.1855158724E+02
          0                 4           2            23   52     1       0.4839609231E-02      63   38    1        -0.1082365938E+01      0.7732888135E+01
          0                 5           1             3   53     1      -0.8509266827E-03      64   38    1        -0.6223810012E+00      0.3641603189E+01

    ------------------------------------------------
       NWT REQUIRED            5 OUTER ITERATIONS 
       AND A TOTAL OF         14 INNER ITERATIONS.
    ------------------------------------------------

 NO OUTPUT CONTROL FOR STRESS PERIOD    8   TIME STEP   14
 ***WARNING***NUZTOP IS 3 AND ALL LAYERS  IN ROW           39  AND COLUMN           76  ARE INACTIVE.
 UNSATURATED FLOW WILL NOT BE ADDED TO ANY LAYER-- SOME WATER MAY FLOW PAST LOWEST LAYER
 ***WARNING***NUZTOP IS 3 AND ALL LAYERS  IN ROW           40  AND COLUMN           76  ARE INACTIVE.
 UNSATURATED FLOW WILL NOT BE ADDED TO ANY LAYER-- SOME WATER MAY FLOW PAST LOWEST LAYER
                                                   Max.-Head-Change                         Max.-Flux-Residual
  Residual-Control   Outer-Iter.   Inner-Iter.     Column Row Layer    Maximum-Head-Change  Column Row Layer    Maximum-Flux-Residual          L2-NORM 
          0                 1           5            67   49     2      -0.6139271394E+00      39   59    1        -0.2486601126E+02      0.2412994140E+03
          0                 2           3            59   12     1       0.1051152547E+00      58   11    1         0.9608779315E+02      0.2320878043E+03
          0                 3           2            64   38     1      -0.6878060019E-02      64   38    1        -0.9697704262E+01      0.2438746194E+02
          0                 4           2            64   38     1      -0.6056112373E-02      64   38    1        -0.8536377689E+01      0.1440154782E+02
          0                 5           2            64   38     1      -0.2596764539E-02      64   38    1        -0.3680604559E+01      0.5807890329E+01
          0                 6           1            64   38     1      -0.7268207507E-03      64   38    1        -0.1033615629E+01      0.2106502942E+01

    ------------------------------------------------
       NWT REQUIRED            6 OUTER ITERATIONS 
       AND A TOTAL OF         15 INNER ITERATIONS.
    ------------------------------------------------

 NO OUTPUT CONTROL FOR STRESS PERIOD    8   TIME STEP   15
 ***WARNING***NUZTOP IS 3 AND ALL LAYERS  IN ROW           39  AND COLUMN           76  ARE INACTIVE.
 UNSATURATED FLOW WILL NOT BE ADDED TO ANY LAYER-- SOME WATER MAY FLOW PAST LOWEST LAYER
 ***WARNING***NUZTOP IS 3 AND ALL LAYERS  IN ROW           40  AND COLUMN           76  ARE INACTIVE.
 UNSATURATED FLOW WILL NOT BE ADDED TO ANY LAYER-- SOME WATER MAY FLOW PAST LOWEST LAYER
                                                   Max.-Head-Change                         Max.-Flux-Residual
  Residual-Control   Outer-Iter.   Inner-Iter.     Column Row Layer    Maximum-Head-Change  Column Row Layer    Maximum-Flux-Residual          L2-NORM 
          0                 1           6            68   48     1       0.2339191215E+01      39   59    1        -0.2108511424E+02      0.2948595933E+03
          0                 2           5            68   47     1       0.2718062307E+01      63   38    1         0.7570329920E+02      0.1508308064E+03
          0                 3           3            27   33     1       0.6442888762E-01      64   38    1         0.5970670024E+02      0.9067455689E+02
          0                 4           3            63   38     1       0.4141513267E-01      63   38    1         0.5849416372E+02      0.8415545341E+02
          0                 5           3            64   38     1       0.1849051462E-01      64   38    1         0.2619320966E+02      0.3275656707E+02
          0                 6           2            64   38     1       0.5242500007E-02      64   38    1         0.7450375484E+01      0.8736147812E+01
          0                 7           2            64   38     1       0.1133107553E-02      64   38    1         0.1613336090E+01      0.1995804348E+01
          0                 8           1            64   38     1       0.2054201254E-03      64   38    1         0.2927500662E+00      0.5544270806E+00

    ------------------------------------------------
       NWT REQUIRED            8 OUTER ITERATIONS 
       AND A TOTAL OF         25 INNER ITERATIONS.
    ------------------------------------------------

 NO OUTPUT CONTROL FOR STRESS PERIOD    8   TIME STEP   16
 ***WARNING***NUZTOP IS 3 AND ALL LAYERS  IN ROW           39  AND COLUMN           76  ARE INACTIVE.
 UNSATURATED FLOW WILL NOT BE ADDED TO ANY LAYER-- SOME WATER MAY FLOW PAST LOWEST LAYER
 ***WARNING***NUZTOP IS 3 AND ALL LAYERS  IN ROW           40  AND COLUMN           76  ARE INACTIVE.
 UNSATURATED FLOW WILL NOT BE ADDED TO ANY LAYER-- SOME WATER MAY FLOW PAST LOWEST LAYER
                                                   Max.-Head-Change                         Max.-Flux-Residual
  Residual-Control   Outer-Iter.   Inner-Iter.     Column Row Layer    Maximum-Head-Change  Column Row Layer    Maximum-Flux-Residual          L2-NORM 
          0                 1           6            27   33     1       0.9193937438E+00      46   42    1         0.2495448266E+02      0.2096507353E+03
          0                 2           4            62   31     1       0.5673007155E+00      63   38    1        -0.1259148094E+02      0.4935849292E+02
          0                 3           2            62   31     1      -0.8680069011E-02      64   38    1        -0.7889254883E+01      0.2063843477E+02
          0                 4           2            64   38     1      -0.3529707134E-02      64   38    1        -0.4982813542E+01      0.1011750992E+02
          0                 5           2            64   38     1      -0.1389237027E-02      64   38    1        -0.1968429447E+01      0.4223576414E+01
          0                 6           1             3   53     1      -0.4466586233E-03      64   38    1        -0.5466911162E+00      0.1801038971E+01

    ------------------------------------------------
       NWT REQUIRED            6 OUTER ITERATIONS 
       AND A TOTAL OF         17 INNER ITERATIONS.
    ------------------------------------------------

 NO OUTPUT CONTROL FOR STRESS PERIOD    8   TIME STEP   17
 ***WARNING***NUZTOP IS 3 AND ALL LAYERS  IN ROW           39  AND COLUMN           76  ARE INACTIVE.
 UNSATURATED FLOW WILL NOT BE ADDED TO ANY LAYER-- SOME WATER MAY FLOW PAST LOWEST LAYER
 ***WARNING***NUZTOP IS 3 AND ALL LAYERS  IN ROW           40  AND COLUMN           76  ARE INACTIVE.
 UNSATURATED FLOW WILL NOT BE ADDED TO ANY LAYER-- SOME WATER MAY FLOW PAST LOWEST LAYER
                                                   Max.-Head-Change                         Max.-Flux-Residual
  Residual-Control   Outer-Iter.   Inner-Iter.     Column Row Layer    Maximum-Head-Change  Column Row Layer    Maximum-Flux-Residual          L2-NORM 
          0                 1           6            68   48     1      -0.1292591220E+01      46   42    1         0.1793116029E+02      0.2153268932E+03
          0                 2           3            62   30     1       0.9552575904E-01      63   38    1        -0.2593403371E+02      0.6455709856E+02
          0                 3           3            63   38     1      -0.1703836683E-01      63   38    1        -0.2406707300E+02      0.3972587978E+02
          0                 4           3            63   38     1      -0.1796764819E-01      63   38    1        -0.2538441326E+02      0.3676347611E+02
          0                 5           2            64   38     1      -0.7840906256E-02      64   38    1        -0.1110957739E+02      0.1414985196E+02
          0                 6           2            64   38     1      -0.2211876979E-02      64   38    1        -0.3144129061E+01      0.3976662394E+01
          0                 7           1            64   38     1      -0.4808083934E-03      64   38    1        -0.6848142463E+00      0.1144691158E+01

    ------------------------------------------------
       NWT REQUIRED            7 OUTER ITERATIONS 
       AND A TOTAL OF         20 INNER ITERATIONS.
    ------------------------------------------------

 NO OUTPUT CONTROL FOR STRESS PERIOD    8   TIME STEP   18
 ***WARNING***NUZTOP IS 3 AND ALL LAYERS  IN ROW           39  AND COLUMN           76  ARE INACTIVE.
 UNSATURATED FLOW WILL NOT BE ADDED TO ANY LAYER-- SOME WATER MAY FLOW PAST LOWEST LAYER
 ***WARNING***NUZTOP IS 3 AND ALL LAYERS  IN ROW           40  AND COLUMN           76  ARE INACTIVE.
 UNSATURATED FLOW WILL NOT BE ADDED TO ANY LAYER-- SOME WATER MAY FLOW PAST LOWEST LAYER
                                                   Max.-Head-Change                         Max.-Flux-Residual
  Residual-Control   Outer-Iter.   Inner-Iter.     Column Row Layer    Maximum-Head-Change  Column Row Layer    Maximum-Flux-Residual          L2-NORM 
          0                 1           6            68   48     1      -0.1460516297E+01       6   49    1        -0.1677613616E+02      0.2247490963E+03
          0                 2           5            62   31     1       0.5978162391E+00      62   31    1         0.4670461029E+03      0.7864309130E+03
          0                 3           3            62   31     1       0.3362778485E-01      62   31    1         0.2574529031E+02      0.5063433169E+02
          0                 4           3            63   38     1      -0.1757440494E-01      63   38    1        -0.2483868033E+02      0.3568309990E+02
          0                 5           2            64   38     1      -0.7687556478E-02      64   38    1        -0.1089225553E+02      0.1390281185E+02
          0                 6           2            64   38     1      -0.2190855807E-02      64   38    1        -0.3114565514E+01      0.3947079979E+01
          0                 7           1            64   38     1      -0.4806470954E-03      64   38    1        -0.6847048078E+00      0.1150745254E+01

    ------------------------------------------------
       NWT REQUIRED            7 OUTER ITERATIONS 
       AND A TOTAL OF         22 INNER ITERATIONS.
    ------------------------------------------------

 NO OUTPUT CONTROL FOR STRESS PERIOD    8   TIME STEP   19
 ***WARNING***NUZTOP IS 3 AND ALL LAYERS  IN ROW           39  AND COLUMN           76  ARE INACTIVE.
 UNSATURATED FLOW WILL NOT BE ADDED TO ANY LAYER-- SOME WATER MAY FLOW PAST LOWEST LAYER
 ***WARNING***NUZTOP IS 3 AND ALL LAYERS  IN ROW           40  AND COLUMN           76  ARE INACTIVE.
 UNSATURATED FLOW WILL NOT BE ADDED TO ANY LAYER-- SOME WATER MAY FLOW PAST LOWEST LAYER
                                                   Max.-Head-Change                         Max.-Flux-Residual
  Residual-Control   Outer-Iter.   Inner-Iter.     Column Row Layer    Maximum-Head-Change  Column Row Layer    Maximum-Flux-Residual          L2-NORM 
          0                 1           6            68   48     1      -0.1509665564E+01      46   42    1        -0.2504960155E+02      0.2756761639E+03
          0                 2           4            66   48     1       0.7319293188E+00      66   48    1         0.5805838000E+03      0.1453010207E+04
          0                 3           3            66   48     1       0.3897779306E-01      66   48    1         0.3027697282E+02      0.8139185823E+02
          0                 4           3            23   51     1       0.6283437268E-01      63   38    1        -0.2474381272E+02      0.3632955065E+02
          0                 5           2            64   38     1      -0.7855099586E-02      64   38    1        -0.1112978184E+02      0.1422887856E+02
          0                 6           2            64   38     1      -0.2279057105E-02      64   38    1        -0.3239738179E+01      0.4108133839E+01
          0                 7           1            64   38     1      -0.5108271871E-03      64   38    1        -0.7276607503E+00      0.1197879539E+01

    ------------------------------------------------
       NWT REQUIRED            7 OUTER ITERATIONS 
       AND A TOTAL OF         21 INNER ITERATIONS.
    ------------------------------------------------

 NO OUTPUT CONTROL FOR STRESS PERIOD    8   TIME STEP   20
 ***WARNING***NUZTOP IS 3 AND ALL LAYERS  IN ROW           39  AND COLUMN           76  ARE INACTIVE.
 UNSATURATED FLOW WILL NOT BE ADDED TO ANY LAYER-- SOME WATER MAY FLOW PAST LOWEST LAYER
 ***WARNING***NUZTOP IS 3 AND ALL LAYERS  IN ROW           40  AND COLUMN           76  ARE INACTIVE.
 UNSATURATED FLOW WILL NOT BE ADDED TO ANY LAYER-- SOME WATER MAY FLOW PAST LOWEST LAYER
                                                   Max.-Head-Change                         Max.-Flux-Residual
  Residual-Control   Outer-Iter.   Inner-Iter.     Column Row Layer    Maximum-Head-Change  Column Row Layer    Maximum-Flux-Residual          L2-NORM 
          0                 1           6            67   49     2      -0.3803033781E+00      46   42    1        -0.4078629411E+02      0.2720853713E+03
          0                 2           4            47   22     1       0.2374600433E+00      63   38    1         0.2010161920E+02      0.5586996304E+02
          0                 3           2            64   38     1       0.1064892214E-01      64   38    1         0.1502163910E+02      0.2791983344E+02
          0                 4           2            64   38     1       0.9473888727E-02      64   38    1         0.1335317471E+02      0.2046672650E+02
          0                 5           2            64   38     1       0.3922122756E-02      64   38    1         0.5559512088E+01      0.7614255183E+01
          0                 6           2            64   38     1       0.1062434166E-02      64   38    1         0.1510015253E+01      0.2432410277E+01
          0                 7           1             3   54     1      -0.2556251579E-03      64   38    1         0.3216457961E+00      0.9391637014E+00

    ------------------------------------------------
       NWT REQUIRED            7 OUTER ITERATIONS 
       AND A TOTAL OF         19 INNER ITERATIONS.
    ------------------------------------------------

 NO OUTPUT CONTROL FOR STRESS PERIOD    8   TIME STEP   21
 ***WARNING***NUZTOP IS 3 AND ALL LAYERS  IN ROW           39  AND COLUMN           76  ARE INACTIVE.
 UNSATURATED FLOW WILL NOT BE ADDED TO ANY LAYER-- SOME WATER MAY FLOW PAST LOWEST LAYER
 ***WARNING***NUZTOP IS 3 AND ALL LAYERS  IN ROW           40  AND COLUMN           76  ARE INACTIVE.
 UNSATURATED FLOW WILL NOT BE ADDED TO ANY LAYER-- SOME WATER MAY FLOW PAST LOWEST LAYER
                                                   Max.-Head-Change                         Max.-Flux-Residual
  Residual-Control   Outer-Iter.   Inner-Iter.     Column Row Layer    Maximum-Head-Change  Column Row Layer    Maximum-Flux-Residual          L2-NORM 
          0                 1           6             4   58     1      -0.4792641220E+00      46   42    1        -0.3160735018E+02      0.2688249768E+03
          0                 2           3            67   49     1       0.1769630547E+00      67   49    1         0.1372583135E+03      0.2011051835E+03
          0                 3           2            64   38     1      -0.8378692527E-02      64   38    1        -0.1180273490E+02      0.2578127235E+02
          0                 4           2            68   49     1       0.1719607376E-01      63   38    1        -0.1356842616E+02      0.2051438843E+02
          0                 5           2            64   38     1      -0.4470954145E-02      64   38    1        -0.6329463115E+01      0.8650708842E+01
          0                 6           2            64   38     1      -0.1354288451E-02      64   38    1        -0.1923335034E+01      0.2801764363E+01
          0                 7           1            64   38     1      -0.3132827298E-03      64   38    1        -0.4458030210E+00      0.9973809165E+00

    ------------------------------------------------
       NWT REQUIRED            7 OUTER ITERATIONS 
       AND A TOTAL OF         18 INNER ITERATIONS.
    ------------------------------------------------

 NO OUTPUT CONTROL FOR STRESS PERIOD    8   TIME STEP   22
 ***WARNING***NUZTOP IS 3 AND ALL LAYERS  IN ROW           39  AND COLUMN           76  ARE INACTIVE.
 UNSATURATED FLOW WILL NOT BE ADDED TO ANY LAYER-- SOME WATER MAY FLOW PAST LOWEST LAYER
 ***WARNING***NUZTOP IS 3 AND ALL LAYERS  IN ROW           40  AND COLUMN           76  ARE INACTIVE.
 UNSATURATED FLOW WILL NOT BE ADDED TO ANY LAYER-- SOME WATER MAY FLOW PAST LOWEST LAYER
                                                   Max.-Head-Change                         Max.-Flux-Residual
  Residual-Control   Outer-Iter.   Inner-Iter.     Column Row Layer    Maximum-Head-Change  Column Row Layer    Maximum-Flux-Residual          L2-NORM 
          0                 1           6            52   57     1       0.4394143738E+00      46   42    1        -0.3695025733E+02      0.2633547408E+03
          0                 2           4            72   63     1       0.1259564035E+00      63   38    1         0.1495727169E+02      0.5184557347E+02
          0                 3           2            64   38     1       0.8682646162E-02      64   38    1         0.1224274610E+02      0.2489161435E+02
          0                 4           2            63   38     1       0.9423406388E-02      63   38    1         0.1331377265E+02      0.2024969061E+02
          0                 5           2            64   38     1       0.4041437070E-02      64   38    1         0.5726462946E+01      0.7825275896E+01
          0                 6           2            64   38     1       0.1135025502E-02      64   38    1         0.1612754277E+01      0.2506633308E+01
          0                 7           1             3   54     1      -0.2539279189E-03      64   38    1         0.3536887443E+00      0.9450277898E+00

    ------------------------------------------------
       NWT REQUIRED            7 OUTER ITERATIONS 
       AND A TOTAL OF         19 INNER ITERATIONS.
    ------------------------------------------------

 NO OUTPUT CONTROL FOR STRESS PERIOD    8   TIME STEP   23
 ***WARNING***NUZTOP IS 3 AND ALL LAYERS  IN ROW           39  AND COLUMN           76  ARE INACTIVE.
 UNSATURATED FLOW WILL NOT BE ADDED TO ANY LAYER-- SOME WATER MAY FLOW PAST LOWEST LAYER
 ***WARNING***NUZTOP IS 3 AND ALL LAYERS  IN ROW           40  AND COLUMN           76  ARE INACTIVE.
 UNSATURATED FLOW WILL NOT BE ADDED TO ANY LAYER-- SOME WATER MAY FLOW PAST LOWEST LAYER
                                                   Max.-Head-Change                         Max.-Flux-Residual
  Residual-Control   Outer-Iter.   Inner-Iter.     Column Row Layer    Maximum-Head-Change  Column Row Layer    Maximum-Flux-Residual          L2-NORM 
          0                 1           6            52   57     1       0.1105909784E+01      46   42    1        -0.2268913787E+02      0.2389272368E+03
          0                 2           4            67   49     1       0.8760522122E+00      63   38    1         0.2158161507E+02      0.6237242584E+02
          0                 3           3            63   38     1       0.1583729759E-01      63   38    1         0.2238455828E+02      0.3700879463E+02
          0                 4           3            63   38     1       0.2042120603E-01      63   38    1         0.2887071249E+02      0.4090685000E+02
          0                 5           2            64   38     1       0.8893521920E-02      64   38    1         0.1260072860E+02      0.1594236548E+02
          0                 6           2            64   38     1       0.2538719926E-02      64   38    1         0.3608605393E+01      0.4459291490E+01
          0                 7           1            64   38     1       0.5581359853E-03      64   38    1         0.7949008108E+00      0.1229078269E+01

    ------------------------------------------------
       NWT REQUIRED            7 OUTER ITERATIONS 
       AND A TOTAL OF         21 INNER ITERATIONS.
    ------------------------------------------------

 NO OUTPUT CONTROL FOR STRESS PERIOD    8   TIME STEP   24
 ***WARNING***NUZTOP IS 3 AND ALL LAYERS  IN ROW           39  AND COLUMN           76  ARE INACTIVE.
 UNSATURATED FLOW WILL NOT BE ADDED TO ANY LAYER-- SOME WATER MAY FLOW PAST LOWEST LAYER
 ***WARNING***NUZTOP IS 3 AND ALL LAYERS  IN ROW           40  AND COLUMN           76  ARE INACTIVE.
 UNSATURATED FLOW WILL NOT BE ADDED TO ANY LAYER-- SOME WATER MAY FLOW PAST LOWEST LAYER
                                                   Max.-Head-Change                         Max.-Flux-Residual
  Residual-Control   Outer-Iter.   Inner-Iter.     Column Row Layer    Maximum-Head-Change  Column Row Layer    Maximum-Flux-Residual          L2-NORM 
          0                 1           6            68   49     1       0.2029256620E+01       6   49    1        -0.1659249590E+02      0.2594449941E+03
          0                 2           5            68   47     1       0.1923259738E+01      63   38    1         0.6036377338E+02      0.1181307460E+03
          0                 3           3            64   38     1       0.2828472778E-01      64   38    1         0.3992361759E+02      0.6198649171E+02
          0                 4           3            64   38     1       0.2374612900E-01      64   38    1         0.3347911569E+02      0.4841423116E+02
          0                 5           2            64   38     1       0.1009553856E-01      64   38    1         0.1430564424E+02      0.1808520878E+02
          0                 6           2            64   38     1       0.2785585079E-02      64   38    1         0.3959573739E+01      0.4889431731E+01
          0                 7           1            64   38     1       0.5919037676E-03      64   38    1         0.8429932475E+00      0.1292253287E+01

    ------------------------------------------------
       NWT REQUIRED            7 OUTER ITERATIONS 
       AND A TOTAL OF         22 INNER ITERATIONS.
    ------------------------------------------------

 NO OUTPUT CONTROL FOR STRESS PERIOD    8   TIME STEP   25
 ***WARNING***NUZTOP IS 3 AND ALL LAYERS  IN ROW           39  AND COLUMN           76  ARE INACTIVE.
 UNSATURATED FLOW WILL NOT BE ADDED TO ANY LAYER-- SOME WATER MAY FLOW PAST LOWEST LAYER
 ***WARNING***NUZTOP IS 3 AND ALL LAYERS  IN ROW           40  AND COLUMN           76  ARE INACTIVE.
 UNSATURATED FLOW WILL NOT BE ADDED TO ANY LAYER-- SOME WATER MAY FLOW PAST LOWEST LAYER
                                                   Max.-Head-Change                         Max.-Flux-Residual
  Residual-Control   Outer-Iter.   Inner-Iter.     Column Row Layer    Maximum-Head-Change  Column Row Layer    Maximum-Flux-Residual          L2-NORM 
          0                 1           6            61   34     1      -0.1433237097E+01      46   42    1         0.2635705484E+02      0.2391385309E+03
          0                 2           4            23   52     1       0.4787602788E+00      63   38    1        -0.5004214649E+02      0.9457148243E+02
          0                 3           3            64   38     1      -0.2506425654E-01      64   38    1        -0.3535198087E+02      0.5527780862E+02
          0                 4           3            64   38     1      -0.2052790222E-01      64   38    1        -0.2893918293E+02      0.4180084206E+02
          0                 5           2            64   38     1      -0.8563018414E-02      64   38    1        -0.1213205349E+02      0.1535767123E+02
          0                 6           2            64   38     1      -0.2354377022E-02      64   38    1        -0.3345057664E+01      0.4227841943E+01
          0                 7           1            64   38     1      -0.5049369315E-03      64   38    1        -0.7186008096E+00      0.1195751331E+01

    ------------------------------------------------
       NWT REQUIRED            7 OUTER ITERATIONS 
       AND A TOTAL OF         21 INNER ITERATIONS.
    ------------------------------------------------

 NO OUTPUT CONTROL FOR STRESS PERIOD    8   TIME STEP   26
 ***WARNING***NUZTOP IS 3 AND ALL LAYERS  IN ROW           39  AND COLUMN           76  ARE INACTIVE.
 UNSATURATED FLOW WILL NOT BE ADDED TO ANY LAYER-- SOME WATER MAY FLOW PAST LOWEST LAYER
 ***WARNING***NUZTOP IS 3 AND ALL LAYERS  IN ROW           40  AND COLUMN           76  ARE INACTIVE.
 UNSATURATED FLOW WILL NOT BE ADDED TO ANY LAYER-- SOME WATER MAY FLOW PAST LOWEST LAYER
                                                   Max.-Head-Change                         Max.-Flux-Residual
  Residual-Control   Outer-Iter.   Inner-Iter.     Column Row Layer    Maximum-Head-Change  Column Row Layer    Maximum-Flux-Residual          L2-NORM 
          0                 1           6            52   57     1      -0.6102613438E+00       4   48    1        -0.1653362147E+02      0.2082838376E+03
          0                 2           3            52   56     1      -0.3325919210E-01      63   38    1        -0.1107896581E+02      0.4874190008E+02
          0                 3           2            63   38     1      -0.7726905613E-02      63   38    1        -0.1091450729E+02      0.2340548605E+02
          0                 4           2            63   38     1      -0.1048275188E-01      63   38    1        -0.1482127567E+02      0.2185595301E+02
          0                 5           2            64   38     1      -0.4717131042E-02      64   38    1        -0.6681073088E+01      0.9017529289E+01
          0                 6           2            64   38     1      -0.1389571302E-02      64   38    1        -0.1974839231E+01      0.2828769193E+01
          0                 7           1            64   38     1      -0.3123037163E-03      64   38    1        -0.4448028046E+00      0.9844008285E+00

    ------------------------------------------------
       NWT REQUIRED            7 OUTER ITERATIONS 
       AND A TOTAL OF         18 INNER ITERATIONS.
    ------------------------------------------------

 NO OUTPUT CONTROL FOR STRESS PERIOD    8   TIME STEP   27
 ***WARNING***NUZTOP IS 3 AND ALL LAYERS  IN ROW           39  AND COLUMN           76  ARE INACTIVE.
 UNSATURATED FLOW WILL NOT BE ADDED TO ANY LAYER-- SOME WATER MAY FLOW PAST LOWEST LAYER
 ***WARNING***NUZTOP IS 3 AND ALL LAYERS  IN ROW           40  AND COLUMN           76  ARE INACTIVE.
 UNSATURATED FLOW WILL NOT BE ADDED TO ANY LAYER-- SOME WATER MAY FLOW PAST LOWEST LAYER
                                                   Max.-Head-Change                         Max.-Flux-Residual
  Residual-Control   Outer-Iter.   Inner-Iter.     Column Row Layer    Maximum-Head-Change  Column Row Layer    Maximum-Flux-Residual          L2-NORM 
          0                 1           6            68   48     1      -0.1744925602E+01       4   48    1        -0.1651859182E+02      0.2818297624E+03
          0                 2           4            68   47     1       0.8172546929E+00      68   47    1         0.6396755170E+03      0.1775444170E+04
          0                 3           3            58   12     1       0.1370639353E+00      64   38    1        -0.3624202232E+02      0.1001794746E+03
          0                 4           3            63   38     1      -0.3047039697E-01      63   38    1        -0.4306567095E+02      0.6100206011E+02
          0                 5           3            64   38     1      -0.1352579798E-01      64   38    1        -0.1916398607E+02      0.2395327976E+02
          0                 6           2            64   38     1      -0.3926633672E-02      64   38    1        -0.5582023714E+01      0.6609137770E+01
          0                 7           1            64   38     1      -0.8763272274E-03      64   38    1        -0.1248397366E+01      0.1634617168E+01

    ------------------------------------------------
       NWT REQUIRED            7 OUTER ITERATIONS 
       AND A TOTAL OF         22 INNER ITERATIONS.
    ------------------------------------------------

 NO OUTPUT CONTROL FOR STRESS PERIOD    8   TIME STEP   28
 ***WARNING***NUZTOP IS 3 AND ALL LAYERS  IN ROW           39  AND COLUMN           76  ARE INACTIVE.
 UNSATURATED FLOW WILL NOT BE ADDED TO ANY LAYER-- SOME WATER MAY FLOW PAST LOWEST LAYER
 ***WARNING***NUZTOP IS 3 AND ALL LAYERS  IN ROW           40  AND COLUMN           76  ARE INACTIVE.
 UNSATURATED FLOW WILL NOT BE ADDED TO ANY LAYER-- SOME WATER MAY FLOW PAST LOWEST LAYER
                                                   Max.-Head-Change                         Max.-Flux-Residual
  Residual-Control   Outer-Iter.   Inner-Iter.     Column Row Layer    Maximum-Head-Change  Column Row Layer    Maximum-Flux-Residual          L2-NORM 
          0                 1           6            52   57     1      -0.1028399716E+01      46   42    1        -0.4528290579E+02      0.3387042581E+03
          0                 2           5            68   49     1       0.5009241982E+00      38   65    1         0.5570901590E+03      0.1404306958E+04
          0                 3           4            68   49     1       0.3206073151E-01      68   49    1         0.2490603417E+02      0.6977986757E+02
          0                 4           3            63   38     1      -0.1790633228E-01      63   38    1        -0.2530575223E+02      0.3648624586E+02
          0                 5           2            64   38     1      -0.8200110721E-02      64   38    1        -0.1161602926E+02      0.1486500578E+02
          0                 6           2            64   38     1      -0.2457573385E-02      64   38    1        -0.3493172345E+01      0.4365493067E+01
          0                 7           1            64   38     1      -0.5654155677E-03      64   38    1        -0.8053963972E+00      0.1249840271E+01

    ------------------------------------------------
       NWT REQUIRED            7 OUTER ITERATIONS 
       AND A TOTAL OF         23 INNER ITERATIONS.
    ------------------------------------------------

 NO OUTPUT CONTROL FOR STRESS PERIOD    8   TIME STEP   29
 ***WARNING***NUZTOP IS 3 AND ALL LAYERS  IN ROW           39  AND COLUMN           76  ARE INACTIVE.
 UNSATURATED FLOW WILL NOT BE ADDED TO ANY LAYER-- SOME WATER MAY FLOW PAST LOWEST LAYER
 ***WARNING***NUZTOP IS 3 AND ALL LAYERS  IN ROW           40  AND COLUMN           76  ARE INACTIVE.
 UNSATURATED FLOW WILL NOT BE ADDED TO ANY LAYER-- SOME WATER MAY FLOW PAST LOWEST LAYER
                                                   Max.-Head-Change                         Max.-Flux-Residual
  Residual-Control   Outer-Iter.   Inner-Iter.     Column Row Layer    Maximum-Head-Change  Column Row Layer    Maximum-Flux-Residual          L2-NORM 
          0                 1           4            25   33     2      -0.3531662141E+00      46   42    1        -0.5943790642E+02      0.3488649216E+03
          0                 2           3            24   33     1      -0.3823488714E-01      63   38    1         0.5043568573E+01      0.4630642299E+02
          0                 3           2             8   45     1      -0.3517080071E-02      64   38    1         0.3188688265E+01      0.1824382788E+02
          0                 4           2             8   45     1      -0.1725296787E-02      64   38    1         0.1782279047E+01      0.8044323734E+01
          0                 5           1             3   54     1      -0.8970267927E-03       3   54    1        -0.5831154276E+00      0.3582265483E+01

    ------------------------------------------------
       NWT REQUIRED            5 OUTER ITERATIONS 
       AND A TOTAL OF         12 INNER ITERATIONS.
    ------------------------------------------------

 NO OUTPUT CONTROL FOR STRESS PERIOD    8   TIME STEP   30



 STREAM LISTING     PERIOD      8   STEP       30

 LAYER ROW COL. STREAM  RCH.   FLOW INTO    STREAM     FLOW OUT OF   OVRLND.    DIRECT     STREAM      STREAM      STREAM     STREAM  STREAMBED   FLOW TO   CHNG. UNSAT. 
                SEG.NO.  NO.   STRM. RCH.    LOSS       STRM. RCH.   RUNOFF     PRECIP       ET         HEAD        DEPTH      WIDTH  CONDCTNC.   WAT. TAB.

   1   18   62     1     1    0.0000E+00  8.7022E-01   0.0000E+00  8.702E-01  0.000E+00  0.000E+00  2.07300E+03  2.398E-05  3.000E+00  1.909E+03  0.000E+00  0.000E+00
   1   19   63     1     2    0.0000E+00 -3.6640E+01   3.7510E+01  8.702E-01  0.000E+00  0.000E+00  2.06300E+03  1.036E-03  3.000E+00  1.909E+03  0.000E+00  0.000E+00
   1   20   64     1     3    3.7510E+01 -6.5340E+01   1.0372E+02  8.702E-01  0.000E+00  0.000E+00  2.05400E+03  2.511E-03  3.000E+00  1.630E+03  0.000E+00  0.000E+00
   1   21   64     1     4    1.0372E+02 -6.9010E+01   1.7360E+02  8.702E-01  0.000E+00  0.000E+00  2.05100E+03  4.633E-03  3.000E+00  1.630E+03  0.000E+00  0.000E+00
   1   22   65     1     5    1.7360E+02 -6.3713E+00   1.8084E+02  8.702E-01  0.000E+00  0.000E+00  2.04800E+03  4.573E-03  3.000E+00  9.546E+02  0.000E+00  0.000E+00
   1   20   66     2     1    0.0000E+00 -2.9339E+01   2.9339E+01  0.000E+00  0.000E+00  0.000E+00  2.05300E+03  1.267E-03  3.000E+00  1.909E+03  0.000E+00  0.000E+00
   1   21   65     2     2    2.9339E+01  1.6138E+01   1.3202E+01  0.000E+00  0.000E+00  0.000E+00  2.05100E+03  1.589E-03  3.000E+00  1.630E+03  0.000E+00  0.000E+00
   1   22   65     2     3    1.3202E+01 -6.9158E+00   2.0118E+01  0.000E+00  0.000E+00  0.000E+00  2.04800E+03  1.002E-03  3.000E+00  6.750E+02  0.000E+00  0.000E+00
   1   22   65     3     1    2.0096E+02 -4.5716E+00   2.0553E+02  0.000E+00  0.000E+00  0.000E+00  2.04800E+03  4.474E-03  3.000E+00  6.750E+02  0.000E+00  0.000E+00
   1   23   65     3     2    2.0553E+02 -7.1647E+01   2.7718E+02  0.000E+00  0.000E+00  0.000E+00  2.04501E+03  7.955E-03  3.000E+00  1.630E+03  0.000E+00  0.000E+00
   1   24   66     3     3    2.7718E+02 -4.3026E+00   2.8148E+02  0.000E+00  0.000E+00  0.000E+00  2.04530E+03  3.024E-01  3.000E+00  1.909E+03  0.000E+00  0.000E+00
   1   25   67     3     4    2.8148E+02  2.3637E+01   2.5784E+02  0.000E+00  0.000E+00  0.000E+00  2.04501E+03  8.912E-03  3.000E+00  1.909E+03  0.000E+00  0.000E+00
   1   26   68     3     5    2.5784E+02 -3.9097E+00   2.6175E+02  0.000E+00  0.000E+00  0.000E+00  2.04201E+03  7.624E-03  3.000E+00  1.630E+03  0.000E+00  0.000E+00
   1   27   68     3     6    2.6175E+02  8.4443E+01   1.7731E+02  0.000E+00  0.000E+00  0.000E+00  2.04101E+03  6.101E-03  3.000E+00  1.630E+03  0.000E+00  0.000E+00
   1   28   69     3     7    1.7731E+02  9.7776E+01   7.9535E+01  0.000E+00  0.000E+00  0.000E+00  2.03600E+03  3.591E-03  3.000E+00  1.630E+03  9.786E+01 -8.192E-02
   1   29   69     3     8    7.9535E+01  3.9988E+01   3.9547E+01  0.000E+00  0.000E+00  0.000E+00  2.02900E+03  2.086E-03  3.000E+00  1.350E+03  0.000E+00  0.000E+00
   1   30   69     3     9    3.9547E+01  1.8512E+01   2.1035E+01  0.000E+00  0.000E+00  0.000E+00  2.02300E+03  1.338E-03  3.000E+00  1.630E+03  0.000E+00  0.000E+00
   1   31   70     3    10    2.1035E+01 -9.8713E+01   1.1975E+02  0.000E+00  0.000E+00  0.000E+00  2.01100E+03  2.217E-03  3.000E+00  1.630E+03  0.000E+00  0.000E+00
   1   32   70     3    11    1.1975E+02 -1.9255E+02   3.1230E+02  0.000E+00  0.000E+00  0.000E+00  2.00501E+03  5.237E-03  3.000E+00  1.350E+03  0.000E+00  0.000E+00
   1   33   70     3    12    3.1230E+02  2.7858E+01   2.8444E+02  0.000E+00  0.000E+00  0.000E+00  2.00301E+03  5.190E-03  3.000E+00  1.630E+03  0.000E+00  0.000E+00
   1   34   69     3    13    2.8444E+02 -1.4218E+01   2.9866E+02  0.000E+00  0.000E+00  0.000E+00  1.98600E+03  4.464E-03  3.000E+00  1.630E+03  0.000E+00  0.000E+00
   1   35   69     3    14    2.9866E+02 -2.8063E+01   3.2672E+02  0.000E+00  0.000E+00  0.000E+00  1.97301E+03  5.045E-03  3.000E+00  1.350E+03  0.000E+00  0.000E+00
   1   36   69     3    15    3.2672E+02  1.6772E+01   3.0995E+02  0.000E+00  0.000E+00  0.000E+00  1.96701E+03  5.589E-03  3.000E+00  1.350E+03  0.000E+00  0.000E+00
   1   37   69     3    16    3.0995E+02  2.2088E+01   2.8786E+02  0.000E+00  0.000E+00  0.000E+00  1.95901E+03  5.382E-03  3.000E+00  1.350E+03  0.000E+00  0.000E+00
   1   38   69     3    17    2.8786E+02  2.7403E+01   2.6046E+02  0.000E+00  0.000E+00  0.000E+00  1.95301E+03  5.528E-03  3.000E+00  1.630E+03  0.000E+00  0.000E+00
   1   39   70     3    18    2.6046E+02 -3.7376E-02   2.6049E+02  0.000E+00  0.000E+00  0.000E+00  1.94600E+03  4.800E-03  3.000E+00  9.546E+02  0.000E+00  0.000E+00
   1   25   49     4     1    0.0000E+00 -1.4054E+02   1.4054E+02  0.000E+00  0.000E+00  0.000E+00  2.03500E+03  2.219E-03  3.000E+00  1.909E+03  0.000E+00  0.000E+00
   1   26   50     4     2    1.4054E+02 -8.5538E+01   2.2608E+02  0.000E+00  0.000E+00  0.000E+00  2.02600E+03  4.280E-03  3.000E+00  1.909E+03  0.000E+00  0.000E+00
   1   27   51     4     3    2.2608E+02 -6.7772E+01   2.9385E+02  0.000E+00  0.000E+00  0.000E+00  2.01901E+03  5.489E-03  3.000E+00  1.630E+03  0.000E+00  0.000E+00
   1   28   51     4     4    2.9385E+02 -7.5483E+01   3.6934E+02  0.000E+00  0.000E+00  0.000E+00  2.01401E+03  6.708E-03  3.000E+00  1.630E+03  0.000E+00  0.000E+00
   1   29   52     4     5    3.6934E+02 -3.9676E+01   4.0901E+02  0.000E+00  0.000E+00  0.000E+00  2.00901E+03  7.383E-03  3.000E+00  1.630E+03  0.000E+00  0.000E+00
   1   30   52     4     6    4.0901E+02 -6.1274E+00   4.1514E+02  0.000E+00  0.000E+00  0.000E+00  2.00401E+03  7.221E-03  3.000E+00  1.350E+03  0.000E+00  0.000E+00
   1   31   52     4     7    4.1514E+02 -1.2788E+01   4.2793E+02  0.000E+00  0.000E+00  0.000E+00  1.99901E+03  8.147E-03  3.000E+00  1.350E+03  0.000E+00  0.000E+00
   1   32   52     4     8    4.2793E+02  8.9053E+00   4.1902E+02  0.000E+00  0.000E+00  0.000E+00  1.99701E+03  8.305E-03  3.000E+00  1.630E+03  0.000E+00  0.000E+00
   1   33   53     4     9    4.1902E+02  1.7972E+01   4.0105E+02  0.000E+00  0.000E+00  0.000E+00  1.99101E+03  7.989E-03  3.000E+00  1.909E+03  0.000E+00  0.000E+00
   1   34   54     4    10    4.0105E+02  2.7928E+01   3.7312E+02  0.000E+00  0.000E+00  0.000E+00  1.98701E+03  7.966E-03  3.000E+00  1.909E+03  0.000E+00  0.000E+00
   1   35   55     4    11    3.7312E+02  4.7496E+01   3.2563E+02  0.000E+00  0.000E+00  0.000E+00  1.98201E+03  6.726E-03  3.000E+00  1.630E+03  0.000E+00  0.000E+00
   1   36   55     4    12    3.2563E+02 -5.5887E+01   3.8152E+02  0.000E+00  0.000E+00  0.000E+00  1.97601E+03  5.955E-03  3.000E+00  6.750E+02  0.000E+00  0.000E+00
   1   35   37     5     1    4.1994E+03 -5.9184E+01   4.2586E+03  0.000E+00  0.000E+00  0.000E+00  2.05402E+03  2.286E-02  3.000E+00  9.546E+02  0.000E+00  0.000E+00
   1   34   38     5     2    4.2586E+03 -1.1477E+02   4.3734E+03  0.000E+00  0.000E+00  0.000E+00  2.04603E+03  2.848E-02  3.000E+00  1.909E+03  0.000E+00  0.000E+00
   1   33   39     5     3    4.3734E+03 -2.3208E+02   4.6054E+03  0.000E+00  0.000E+00  0.000E+00  2.03803E+03  3.466E-02  3.000E+00  1.909E+03  0.000E+00  0.000E+00
   1   32   40     5     4    4.6054E+03  1.1464E+02   4.4908E+03  0.000E+00  0.000E+00  0.000E+00  2.03703E+03  3.451E-02  3.000E+00  1.630E+03  0.000E+00  0.000E+00
   1   32   41     5     5    4.4908E+03 -1.2759E+02   4.6184E+03  0.000E+00  0.000E+00  0.000E+00  2.03003E+03  2.890E-02  3.000E+00  1.350E+03  0.000E+00  0.000E+00
   1   32   42     5     6    4.6184E+03 -1.6143E+02   4.7798E+03  0.000E+00  0.000E+00  0.000E+00  2.02503E+03  3.462E-02  3.000E+00  1.350E+03  0.000E+00  0.000E+00
   1   32   43     5     7    4.7798E+03 -4.8517E+01   4.8283E+03  0.000E+00  0.000E+00  0.000E+00  2.02304E+03  3.888E-02  3.000E+00  1.630E+03  0.000E+00  0.000E+00
   1   33   44     5     8    4.8283E+03 -1.3267E+02   4.9610E+03  0.000E+00  0.000E+00  0.000E+00  2.01904E+03  3.936E-02  3.000E+00  1.909E+03  0.000E+00  0.000E+00
   1   34   45     5     9    4.9610E+03 -1.1423E+01   4.9724E+03  0.000E+00  0.000E+00  0.000E+00  2.01604E+03  3.638E-02  3.000E+00  1.630E+03  0.000E+00  0.000E+00
   1   34   46     5    10    4.9724E+03 -9.5058E+01   5.0675E+03  0.000E+00  0.000E+00  0.000E+00  2.01103E+03  3.340E-02  3.000E+00  1.350E+03  0.000E+00  0.000E+00
   1   34   47     5    11    5.0675E+03  9.0850E+00   5.0584E+03  0.000E+00  0.000E+00  0.000E+00  2.00703E+03  2.642E-02  3.000E+00  6.750E+02  0.000E+00  0.000E+00
   1   34   47     6     1    5.0703E+03  7.7418E+00   5.0626E+03  0.000E+00  0.000E+00  0.000E+00  2.00702E+03  2.443E-02  3.000E+00  6.750E+02  0.000E+00  0.000E+00
   1   34   48     6     2    5.0626E+03 -1.1915E+02   5.1817E+03  0.000E+00  0.000E+00  0.000E+00  2.00103E+03  3.204E-02  3.000E+00  1.630E+03  0.000E+00  0.000E+00
   1   35   49     6     3    5.1817E+03 -2.6234E+02   5.4441E+03  0.000E+00  0.000E+00  0.000E+00  1.99403E+03  3.443E-02  3.000E+00  1.630E+03  0.000E+00  0.000E+00
   1   35   50     6     4    5.4441E+03 -1.8738E+02   5.6314E+03  0.000E+00  0.000E+00  0.000E+00  1.99004E+03  4.226E-02  3.000E+00  1.350E+03  0.000E+00  0.000E+00
   1   35   51     6     5    5.6314E+03  4.0336E+01   5.5911E+03  0.000E+00  0.000E+00  0.000E+00  1.98904E+03  4.267E-02  3.000E+00  1.630E+03  0.000E+00  0.000E+00
   1   36   52     6     6    5.5911E+03 -1.2128E+02   5.7124E+03  0.000E+00  0.000E+00  0.000E+00  1.98404E+03  3.795E-02  3.000E+00  1.630E+03  0.000E+00  0.000E+00
   1   36   53     6     7    5.7124E+03 -2.2505E+02   5.9374E+03  0.000E+00  0.000E+00  0.000E+00  1.98005E+03  4.929E-02  3.000E+00  1.630E+03  0.000E+00  0.000E+00
   1   37   54     6     8    5.9374E+03 -4.0841E+01   5.9783E+03  0.000E+00  0.000E+00  0.000E+00  1.98005E+03  5.239E-02  3.000E+00  1.909E+03  0.000E+00  0.000E+00
   1   36   55     6     9    5.9783E+03 -4.6564E+01   6.0248E+03  0.000E+00  0.000E+00  0.000E+00  1.97604E+03  3.997E-02  3.000E+00  9.546E+02  0.000E+00  0.000E+00
   1   36   34     7     1    1.6744E+03 -4.7477E+01   1.7219E+03  0.000E+00  0.000E+00  0.000E+00  2.07701E+03  1.202E-02  3.000E+00  9.546E+02  0.000E+00  0.000E+00
   1   35   35     7     2    1.7219E+03 -9.0250E+01   1.8122E+03  0.000E+00  0.000E+00  0.000E+00  2.06702E+03  1.621E-02  3.000E+00  1.630E+03  0.000E+00  0.000E+00
   1   35   36     7     3    1.8122E+03  3.2825E+01   1.7793E+03  0.000E+00  0.000E+00  0.000E+00  2.06202E+03  1.614E-02  3.000E+00  1.350E+03  0.000E+00  0.000E+00
   1   35   37     7     4    1.7793E+03 -4.8938E+01   1.8283E+03  0.000E+00  0.000E+00  0.000E+00  2.05401E+03  1.235E-02  3.000E+00  6.750E+02  0.000E+00  0.000E+00
   1   52   49     8     1    0.0000E+00 -2.0057E+02   2.0057E+02  0.000E+00  0.000E+00  0.000E+00  2.12100E+03  2.831E-03  3.000E+00  1.909E+03  0.000E+00  0.000E+00
   1   51   48     8     2    2.0057E+02 -1.9187E+02   3.9244E+02  0.000E+00  0.000E+00  0.000E+00  2.11701E+03  8.658E-03  3.000E+00  1.909E+03  0.000E+00  0.000E+00
   1   50   47     8     3    3.9244E+02  9.7776E+01   2.9466E+02  0.000E+00  0.000E+00  0.000E+00  2.11701E+03  7.326E-03  3.000E+00  1.630E+03  9.775E+01  2.836E-02
   1   49   47     8     4    2.9466E+02 -2.0068E+02   4.9534E+02  0.000E+00  0.000E+00  0.000E+00  2.10901E+03  7.450E-03  3.000E+00  1.630E+03  0.000E+00  0.000E+00
   1   48   46     8     5    4.9534E+02  2.0686E+01   4.7465E+02  0.000E+00  0.000E+00  0.000E+00  2.10701E+03  1.109E-02  3.000E+00  1.630E+03  0.000E+00  0.000E+00
   1   47   46     8     6    4.7465E+02  9.4475E+01   3.8018E+02  0.000E+00  0.000E+00  0.000E+00  2.10501E+03  9.718E-03  3.000E+00  1.350E+03  0.000E+00  0.000E+00
   1   46   46     8     7    3.8018E+02  8.1000E+01   2.9918E+02  0.000E+00  0.000E+00  0.000E+00  2.10301E+03  7.497E-03  3.000E+00  1.350E+03  8.103E+01 -3.413E-02
   1   45   46     8     8    2.9918E+02  8.1000E+01   2.1818E+02  0.000E+00  0.000E+00  0.000E+00  2.09901E+03  5.171E-03  3.000E+00  1.350E+03  8.107E+01 -6.975E-02
   1   44   46     8     9    2.1818E+02  8.1000E+01   1.3718E+02  0.000E+00  0.000E+00  0.000E+00  2.09100E+03  3.596E-03  3.000E+00  1.350E+03  8.105E+01 -5.432E-02
   1   43   46     8    10    1.3718E+02  1.1643E+02   2.0747E+01  0.000E+00  0.000E+00  0.000E+00  2.08000E+03  2.210E-03  3.000E+00  1.350E+03  0.000E+00  0.000E+00
   1   42   46     8    11    2.0747E+01  2.0747E+01   0.0000E+00  0.000E+00  0.000E+00  0.000E+00  2.07200E+03  2.324E-04  3.000E+00  1.630E+03  0.000E+00  0.000E+00
   1   41   45     8    12    0.0000E+00 -1.0225E+02   1.0225E+02  0.000E+00  0.000E+00  0.000E+00  2.06000E+03  1.832E-03  3.000E+00  1.630E+03  0.000E+00  0.000E+00
   1   40   45     8    13    1.0225E+02  8.1000E+01   2.1254E+01  0.000E+00  0.000E+00  0.000E+00  2.05400E+03  2.090E-03  3.000E+00  1.350E+03  8.085E+01  1.526E-01
   1   39   45     8    14    2.1254E+01  2.1254E+01   0.0000E+00  0.000E+00  0.000E+00  0.000E+00  2.04600E+03  2.263E-04  3.000E+00  1.350E+03  2.096E+01  2.934E-01
   1   38   45     8    15    0.0000E+00  0.0000E+00   0.0000E+00  0.000E+00  0.000E+00  0.000E+00  2.03500E+03  0.000E+00  3.000E+00  1.350E+03  0.000E+00  0.000E+00
   1   37   45     8    16    0.0000E+00  0.0000E+00   0.0000E+00  0.000E+00  0.000E+00  0.000E+00  2.02700E+03  0.000E+00  3.000E+00  1.630E+03  0.000E+00  0.000E+00
   1   36   46     8    17    0.0000E+00  0.0000E+00   0.0000E+00  0.000E+00  0.000E+00  0.000E+00  2.02100E+03  0.000E+00  3.000E+00  1.630E+03  0.000E+00  0.000E+00
   1   35   46     8    18    0.0000E+00  0.0000E+00   0.0000E+00  0.000E+00  0.000E+00  0.000E+00  2.01400E+03  0.000E+00  3.000E+00  1.630E+03  0.000E+00  0.000E+00
   1   34   47     8    19    0.0000E+00 -1.1919E+01   1.1919E+01  0.000E+00  0.000E+00  0.000E+00  2.00700E+03  4.777E-04  3.000E+00  9.546E+02  0.000E+00  0.000E+00
   1   37   26     9     1    0.0000E+00  0.0000E+00   0.0000E+00  0.000E+00  0.000E+00  0.000E+00  2.14700E+03  0.000E+00  3.000E+00  1.350E+03  0.000E+00  0.000E+00
   1   37   27     9     2    0.0000E+00 -6.0850E+01   6.0850E+01  0.000E+00  0.000E+00  0.000E+00  2.13400E+03  1.194E-03  3.000E+00  1.350E+03  0.000E+00  0.000E+00
   1   37   28     9     3    6.0850E+01 -1.2672E+02   1.8757E+02  0.000E+00  0.000E+00  0.000E+00  2.12500E+03  3.072E-03  3.000E+00  1.630E+03  0.000E+00  0.000E+00
   1   36   29     9     4    1.8757E+02  2.2195E+01   1.6538E+02  0.000E+00  0.000E+00  0.000E+00  2.11500E+03  3.852E-03  3.000E+00  1.630E+03  0.000E+00  0.000E+00
   1   36   30     9     5    1.6538E+02 -7.1621E+01   2.3700E+02  0.000E+00  0.000E+00  0.000E+00  2.10700E+03  4.006E-03  3.000E+00  1.350E+03  0.000E+00  0.000E+00
   1   36   31     9     6    2.3700E+02 -1.8492E+02   4.2192E+02  0.000E+00  0.000E+00  0.000E+00  2.09801E+03  5.484E-03  3.000E+00  1.350E+03  0.000E+00  0.000E+00
   1   36   32     9     7    4.2192E+02 -1.3184E+02   5.5376E+02  0.000E+00  0.000E+00  0.000E+00  2.09101E+03  7.224E-03  3.000E+00  1.350E+03  0.000E+00  0.000E+00
   1   36   33     9     8    5.5376E+02 -1.2328E+02   6.7704E+02  0.000E+00  0.000E+00  0.000E+00  2.08401E+03  8.304E-03  3.000E+00  1.350E+03  0.000E+00  0.000E+00
   1   36   34     9     9    6.7704E+02 -3.7059E+01   7.1410E+02  0.000E+00  0.000E+00  0.000E+00  2.07701E+03  6.849E-03  3.000E+00  6.750E+02  0.000E+00  0.000E+00
   1   58   37    10     1    0.0000E+00 -8.1468E+01   8.1468E+01  0.000E+00  0.000E+00  0.000E+00  2.15000E+03  2.374E-03  3.000E+00  1.350E+03  0.000E+00  0.000E+00
   1   57   37    10     2    8.1468E+01 -7.9762E+01   1.6123E+02  0.000E+00  0.000E+00  0.000E+00  2.14700E+03  4.084E-03  3.000E+00  1.630E+03  0.000E+00  0.000E+00
   1   56   38    10     3    1.6123E+02 -3.4381E-01   1.6157E+02  0.000E+00  0.000E+00  0.000E+00  2.14300E+03  4.494E-03  3.000E+00  1.630E+03  0.000E+00  0.000E+00
   1   55   38    10     4    1.6157E+02 -1.5806E+02   3.1963E+02  0.000E+00  0.000E+00  0.000E+00  2.13801E+03  5.592E-03  3.000E+00  1.350E+03  0.000E+00  0.000E+00
   1   54   38    10     5    3.1963E+02 -9.9500E+01   4.1913E+02  0.000E+00  0.000E+00  0.000E+00  2.13501E+03  7.883E-03  3.000E+00  1.350E+03  0.000E+00  0.000E+00
   1   53   38    10     6    4.1913E+02 -9.0038E+01   5.0917E+02  0.000E+00  0.000E+00  0.000E+00  2.13201E+03  9.040E-03  3.000E+00  1.350E+03  0.000E+00  0.000E+00
   1   52   38    10     7    5.0917E+02 -1.5228E+02   6.6144E+02  0.000E+00  0.000E+00  0.000E+00  2.12901E+03  1.242E-02  3.000E+00  1.630E+03  0.000E+00  0.000E+00
   1   51   39    10     8    6.6144E+02  2.4545E+01   6.3690E+02  0.000E+00  0.000E+00  0.000E+00  2.12801E+03  1.321E-02  3.000E+00  1.630E+03  0.000E+00  0.000E+00
   1   50   39    10     9    6.3690E+02 -6.4598E+01   7.0150E+02  0.000E+00  0.000E+00  0.000E+00  2.12501E+03  1.138E-02  3.000E+00  1.630E+03  0.000E+00  0.000E+00
   1   49   38    10    10    7.0150E+02 -1.3539E+02   8.3688E+02  0.000E+00  0.000E+00  0.000E+00  2.12101E+03  1.297E-02  3.000E+00  1.909E+03  0.000E+00  0.000E+00
   1   48   37    10    11    8.3688E+02  3.6932E+01   7.9995E+02  0.000E+00  0.000E+00  0.000E+00  2.11801E+03  1.145E-02  3.000E+00  1.909E+03  0.000E+00  0.000E+00
   1   47   36    10    12    7.9995E+02 -3.1993E+02   1.1199E+03  0.000E+00  0.000E+00  0.000E+00  2.10901E+03  1.202E-02  3.000E+00  1.630E+03  0.000E+00  0.000E+00
   1   46   36    10    13    1.1199E+03 -1.1537E+02   1.2352E+03  0.000E+00  0.000E+00  0.000E+00  2.10602E+03  1.509E-02  3.000E+00  1.350E+03  0.000E+00  0.000E+00
   1   45   36    10    14    1.2352E+03 -1.5046E+02   1.3857E+03  0.000E+00  0.000E+00  0.000E+00  2.10202E+03  1.609E-02  3.000E+00  1.350E+03  0.000E+00  0.000E+00
   1   44   36    10    15    1.3857E+03 -7.8733E+01   1.4644E+03  0.000E+00  0.000E+00  0.000E+00  2.09902E+03  1.772E-02  3.000E+00  1.350E+03  0.000E+00  0.000E+00
   1   43   36    10    16    1.4644E+03  1.8041E+01   1.4464E+03  0.000E+00  0.000E+00  0.000E+00  2.09602E+03  1.681E-02  3.000E+00  1.630E+03  0.000E+00  0.000E+00
   1   42   37    10    17    1.4464E+03  9.7776E+01   1.3486E+03  0.000E+00  0.000E+00  0.000E+00  2.09001E+03  1.381E-02  3.000E+00  1.630E+03  9.763E+01  1.485E-01
   1   41   37    10    18    1.3486E+03 -2.1351E+02   1.5621E+03  0.000E+00  0.000E+00  0.000E+00  2.08001E+03  1.337E-02  3.000E+00  1.350E+03  0.000E+00  0.000E+00
   1   40   37    10    19    1.5621E+03 -3.0995E+02   1.8721E+03  0.000E+00  0.000E+00  0.000E+00  2.07402E+03  1.857E-02  3.000E+00  1.630E+03  0.000E+00  0.000E+00
   1   39   38    10    20    1.8721E+03 -1.0867E+01   1.8830E+03  0.000E+00  0.000E+00  0.000E+00  2.07102E+03  2.112E-02  3.000E+00  1.630E+03  0.000E+00  0.000E+00
   1   38   38    10    21    1.8830E+03  3.6166E+01   1.8468E+03  0.000E+00  0.000E+00  0.000E+00  2.06702E+03  1.890E-02  3.000E+00  1.630E+03  0.000E+00  0.000E+00
   1   37   37    10    22    1.8468E+03 -2.8156E+02   2.1283E+03  0.000E+00  0.000E+00  0.000E+00  2.06102E+03  1.964E-02  3.000E+00  1.630E+03  0.000E+00  0.000E+00
   1   36   37    10    23    2.1283E+03 -1.9641E+02   2.3248E+03  0.000E+00  0.000E+00  0.000E+00  2.05702E+03  2.212E-02  3.000E+00  1.350E+03  0.000E+00  0.000E+00
   1   35   37    10    24    2.3248E+03 -4.6347E+01   2.3711E+03  0.000E+00  0.000E+00  0.000E+00  2.05402E+03  1.619E-02  3.000E+00  6.750E+02  0.000E+00  0.000E+00
   1   36   55    11     1    6.4064E+03 -3.7007E+01   6.4434E+03  0.000E+00  0.000E+00  0.000E+00  1.97603E+03  3.393E-02  3.000E+00  6.750E+02  0.000E+00  0.000E+00
   1   36   56    11     2    6.4434E+03 -4.9375E+01   6.4927E+03  0.000E+00  0.000E+00  0.000E+00  1.97506E+03  5.721E-02  3.000E+00  1.630E+03  0.000E+00  0.000E+00
   1   37   57    11     3    6.4927E+03 -1.2834E+02   6.6211E+03  0.000E+00  0.000E+00  0.000E+00  1.97306E+03  5.768E-02  3.000E+00  1.630E+03  0.000E+00  0.000E+00
   1   37   58    11     4    6.6211E+03 -8.4261E+01   6.7053E+03  0.000E+00  0.000E+00  0.000E+00  1.97208E+03  7.653E-02  3.000E+00  1.350E+03  0.000E+00  0.000E+00
   1   37   59    11     5    6.7053E+03  1.4110E+01   6.6912E+03  0.000E+00  0.000E+00  0.000E+00  1.97206E+03  6.236E-02  3.000E+00  1.350E+03  0.000E+00  0.000E+00
   1   37   60    11     6    6.6912E+03 -4.8637E+00   6.6961E+03  0.000E+00  0.000E+00  0.000E+00  1.97005E+03  5.010E-02  3.000E+00  1.630E+03  0.000E+00  0.000E+00
   1   38   61    11     7    6.6961E+03 -7.7829E+01   6.7739E+03  0.000E+00  0.000E+00  0.000E+00  1.96705E+03  4.546E-02  3.000E+00  1.630E+03  0.000E+00  0.000E+00
   1   38   62    11     8    6.7739E+03 -9.2830E+01   6.8668E+03  0.000E+00  0.000E+00  0.000E+00  1.96304E+03  4.159E-02  3.000E+00  6.750E+02  0.000E+00  0.000E+00
   1   51   11    12     1    0.0000E+00 -4.5640E+02   4.5640E+02  0.000E+00  0.000E+00  0.000E+00  2.38700E+03  4.438E-03  3.000E+00  1.909E+03  0.000E+00  0.000E+00
   1   50   12    12     2    4.5640E+02 -4.3982E+01   5.0039E+02  0.000E+00  0.000E+00  0.000E+00  2.37501E+03  6.597E-03  3.000E+00  1.630E+03  0.000E+00  0.000E+00
   1   49   12    12     3    5.0039E+02 -3.6033E+02   8.6072E+02  0.000E+00  0.000E+00  0.000E+00  2.36501E+03  8.516E-03  3.000E+00  1.630E+03  0.000E+00  0.000E+00
   1   48   13    12     4    8.6072E+02 -1.5072E+02   1.0114E+03  0.000E+00  0.000E+00  0.000E+00  2.35601E+03  1.107E-02  3.000E+00  1.630E+03  0.000E+00  0.000E+00
   1   48   14    12     5    1.0114E+03 -1.4866E+02   1.1601E+03  0.000E+00  0.000E+00  0.000E+00  2.35001E+03  1.187E-02  3.000E+00  1.630E+03  0.000E+00  0.000E+00
   1   47   15    12     6    1.1601E+03 -1.4853E+02   1.3086E+03  0.000E+00  0.000E+00  0.000E+00  2.34001E+03  1.307E-02  3.000E+00  1.630E+03  0.000E+00  0.000E+00
   1   47   16    12     7    1.3086E+03 -1.1113E+02   1.4197E+03  0.000E+00  0.000E+00  0.000E+00  2.33502E+03  1.523E-02  3.000E+00  1.630E+03  0.000E+00  0.000E+00
   1   46   17    12     8    1.4197E+03  9.4832E+01   1.3249E+03  0.000E+00  0.000E+00  0.000E+00  2.32901E+03  1.422E-02  3.000E+00  1.630E+03  0.000E+00  0.000E+00
   1   46   18    12     9    1.3249E+03  1.8428E+02   1.1406E+03  0.000E+00  0.000E+00  0.000E+00  2.32101E+03  1.086E-02  3.000E+00  1.350E+03  0.000E+00  0.000E+00
   1   46   19    12    10    1.1406E+03 -1.4455E+02   1.2852E+03  0.000E+00  0.000E+00  0.000E+00  2.30601E+03  1.222E-02  3.000E+00  1.350E+03  0.000E+00  0.000E+00
   1   46   20    12    11    1.2852E+03  9.7776E+01   1.1874E+03  0.000E+00  0.000E+00  0.000E+00  2.30601E+03  1.042E-02  3.000E+00  1.630E+03  9.773E+01  5.032E-02
   1   45   21    12    12    1.1874E+03 -3.2110E+01   1.2195E+03  0.000E+00  0.000E+00  0.000E+00  2.27401E+03  9.092E-03  3.000E+00  1.909E+03  0.000E+00  0.000E+00
   1   44   22    12    13    1.2195E+03 -1.2133E+02   1.3409E+03  0.000E+00  0.000E+00  0.000E+00  2.25001E+03  1.021E-02  3.000E+00  1.909E+03  0.000E+00  0.000E+00
   1   43   23    12    14    1.3409E+03  1.6874E+02   1.1721E+03  0.000E+00  0.000E+00  0.000E+00  2.23101E+03  1.017E-02  3.000E+00  1.909E+03  0.000E+00  0.000E+00
   1   42   24    12    15    1.1721E+03 -6.5674E+01   1.2378E+03  0.000E+00  0.000E+00  0.000E+00  2.20801E+03  1.036E-02  3.000E+00  1.630E+03  0.000E+00  0.000E+00
   1   42   25    12    16    1.2378E+03 -1.9809E+00   1.2398E+03  0.000E+00  0.000E+00  0.000E+00  2.20001E+03  1.135E-02  3.000E+00  1.350E+03  0.000E+00  0.000E+00
   1   42   26    12    17    1.2398E+03  1.3907E+02   1.1007E+03  0.000E+00  0.000E+00  0.000E+00  2.18801E+03  9.716E-03  3.000E+00  1.350E+03  0.000E+00  0.000E+00
   1   42   27    12    18    1.1007E+03 -2.4244E+02   1.3431E+03  0.000E+00  0.000E+00  0.000E+00  2.17001E+03  1.007E-02  3.000E+00  1.350E+03  0.000E+00  0.000E+00
   1   42   28    12    19    1.3431E+03 -6.9663E+01   1.4128E+03  0.000E+00  0.000E+00  0.000E+00  2.15901E+03  1.158E-02  3.000E+00  1.630E+03  0.000E+00  0.000E+00
   1   41   29    12    20    1.4128E+03  1.7533E+02   1.2375E+03  0.000E+00  0.000E+00  0.000E+00  2.14201E+03  1.139E-02  3.000E+00  1.909E+03  0.000E+00  0.000E+00
   1   40   30    12    21    1.2375E+03  7.8359E+01   1.1591E+03  0.000E+00  0.000E+00  0.000E+00  2.12701E+03  1.129E-02  3.000E+00  1.909E+03  0.000E+00  0.000E+00
   1   39   31    12    22    1.1591E+03  1.1455E+02   1.0446E+03  0.000E+00  0.000E+00  0.000E+00  2.11501E+03  1.112E-02  3.000E+00  1.909E+03  1.141E+02  4.064E-01
   1   38   32    12    23    1.0446E+03  1.1455E+02   9.3001E+02  0.000E+00  0.000E+00  0.000E+00  2.10301E+03  1.016E-02  3.000E+00  1.909E+03  1.142E+02  3.783E-01
   1   37   33    12    24    9.3001E+02  2.0606E+01   9.0940E+02  0.000E+00  0.000E+00  0.000E+00  2.08901E+03  9.739E-03  3.000E+00  1.909E+03  0.000E+00  0.000E+00
   1   36   34    12    25    9.0940E+02 -5.0929E+01   9.6033E+02  0.000E+00  0.000E+00  0.000E+00  2.07701E+03  8.399E-03  3.000E+00  9.546E+02  0.000E+00  0.000E+00
   1   38   62    13     1    7.0353E+03 -9.9085E+01   7.1344E+03  0.000E+00  0.000E+00  0.000E+00  1.96303E+03  3.233E-02  3.000E+00  6.750E+02  0.000E+00  0.000E+00
   1   38   63    13     2    7.1344E+03 -1.3310E+01   7.1477E+03  0.000E+00  0.000E+00  0.000E+00  1.96512E+03  2.115E+00  3.000E+00  1.350E+03  0.000E+00  0.000E+00
   1   38   64    13     3    7.1477E+03  1.4017E+01   7.1337E+03  0.000E+00  0.000E+00  0.000E+00  1.96511E+03  2.115E+00  3.000E+00  1.350E+03  0.000E+00  0.000E+00
   1   38   65    13     4    7.1337E+03 -2.0651E+01   7.1544E+03  0.000E+00  0.000E+00  0.000E+00  1.96306E+03  5.739E-02  3.000E+00  1.350E+03  0.000E+00  0.000E+00
   1   38   66    13     5    7.1544E+03 -6.2845E+01   7.2172E+03  0.000E+00  0.000E+00  0.000E+00  1.96005E+03  4.941E-02  3.000E+00  1.350E+03  0.000E+00  0.000E+00
   1   38   67    13     6    7.2172E+03 -3.5057E+01   7.2523E+03  0.000E+00  0.000E+00  0.000E+00  1.95805E+03  4.745E-02  3.000E+00  1.630E+03  0.000E+00  0.000E+00
   1   39   68    13     7    7.2523E+03 -7.1397E+00   7.2594E+03  0.000E+00  0.000E+00  0.000E+00  1.95304E+03  4.271E-02  3.000E+00  1.630E+03  0.000E+00  0.000E+00
   1   39   69    13     8    7.2594E+03 -6.6959E+01   7.3264E+03  0.000E+00  0.000E+00  0.000E+00  1.94805E+03  4.507E-02  3.000E+00  1.350E+03  0.000E+00  0.000E+00
   1   39   70    13     9    7.3264E+03  2.2658E+01   7.3037E+03  0.000E+00  0.000E+00  0.000E+00  1.94604E+03  3.841E-02  3.000E+00  6.750E+02  0.000E+00  0.000E+00
   1   46   61    14     1    0.0000E+00 -2.7325E+00   2.7325E+00  0.000E+00  0.000E+00  0.000E+00  2.01700E+03  2.354E-04  3.000E+00  1.350E+03  0.000E+00  0.000E+00
   1   45   61    14     2    2.7325E+00  2.7325E+00   0.0000E+00  0.000E+00  0.000E+00  0.000E+00  2.01000E+03  7.787E-05  3.000E+00  1.350E+03  0.000E+00  0.000E+00
   1   44   61    14     3    0.0000E+00  0.0000E+00   0.0000E+00  0.000E+00  0.000E+00  0.000E+00  2.00600E+03  0.000E+00  3.000E+00  1.350E+03  0.000E+00  0.000E+00
   1   43   61    14     4    0.0000E+00  0.0000E+00   0.0000E+00  0.000E+00  0.000E+00  0.000E+00  1.99900E+03  0.000E+00  3.000E+00  1.350E+03  0.000E+00  0.000E+00
   1   42   61    14     5    0.0000E+00  0.0000E+00   0.0000E+00  0.000E+00  0.000E+00  0.000E+00  1.99300E+03  0.000E+00  3.000E+00  1.350E+03  0.000E+00  0.000E+00
   1   41   61    14     6    0.0000E+00  0.0000E+00   0.0000E+00  0.000E+00  0.000E+00  0.000E+00  1.98500E+03  0.000E+00  3.000E+00  1.350E+03  0.000E+00  0.000E+00
   1   40   61    14     7    0.0000E+00 -1.5431E+01   1.5431E+01  0.000E+00  0.000E+00  0.000E+00  1.97800E+03  6.429E-04  3.000E+00  1.350E+03  0.000E+00  0.000E+00
   1   39   61    14     8    1.5431E+01  1.5431E+01   0.0000E+00  0.000E+00  0.000E+00  0.000E+00  1.97300E+03  2.121E-04  3.000E+00  1.630E+03  0.000E+00  0.000E+00
   1   38   62    14     9    0.0000E+00 -1.6858E+02   1.6858E+02  0.000E+00  0.000E+00  0.000E+00  1.96300E+03  2.515E-03  3.000E+00  9.546E+02  0.000E+00  0.000E+00
   1   39   70    15     1    7.5642E+03  1.8770E+01   7.5454E+03  0.000E+00  0.000E+00  0.000E+00  1.94603E+03  3.265E-02  3.000E+00  6.750E+02  0.000E+00  0.000E+00
   1   39   71    15     2    7.5454E+03 -9.3947E+01   7.6394E+03  0.000E+00  0.000E+00  0.000E+00  1.94205E+03  5.404E-02  3.000E+00  1.630E+03  0.000E+00  0.000E+00
   1   40   72    15     3    7.6394E+03 -1.5746E+01   7.6551E+03  0.000E+00  0.000E+00  0.000E+00  1.94106E+03  5.803E-02  3.000E+00  1.630E+03  0.000E+00  0.000E+00
   1   40   73    15     4    7.6551E+03 -3.4454E+01   7.6896E+03  0.000E+00  0.000E+00  0.000E+00  1.93805E+03  5.139E-02  3.000E+00  1.350E+03  0.000E+00  0.000E+00
   1   40   74    15     5    7.6896E+03 -1.1109E+01   7.7007E+03  0.000E+00  0.000E+00  0.000E+00  1.93606E+03  5.505E-02  3.000E+00  1.350E+03  0.000E+00  0.000E+00
   1   40   75    15     6    7.7007E+03  2.0633E+00   7.6986E+03  0.000E+00  0.000E+00  0.000E+00  1.93405E+03  4.876E-02  3.000E+00  6.750E+02  0.000E+00  0.000E+00
   1   40   75    16     1    8.3945E+03 -1.1092E+00   8.3956E+03  0.000E+00  0.000E+00  0.000E+00  1.93404E+03  4.406E-02  3.000E+00  6.750E+02  0.000E+00  0.000E+00
   1   40   76    16     2    8.3956E+03  0.0000E+00   8.3956E+03  0.000E+00  0.000E+00  0.000E+00  1.93306E+03  6.323E-02  3.000E+00  0.000E+00  0.000E+00  0.000E+00
   1   55   73    17     1    0.0000E+00  0.0000E+00   0.0000E+00  0.000E+00  0.000E+00  0.000E+00  2.04100E+03  0.000E+00  3.000E+00  1.350E+03  0.000E+00  0.000E+00
   1   54   73    17     2    0.0000E+00  0.0000E+00   0.0000E+00  0.000E+00  0.000E+00  0.000E+00  2.02900E+03  0.000E+00  3.000E+00  1.350E+03  0.000E+00  0.000E+00
   1   53   73    17     3    0.0000E+00  0.0000E+00   0.0000E+00  0.000E+00  0.000E+00  0.000E+00  2.01700E+03  0.000E+00  3.000E+00  1.350E+03  0.000E+00  0.000E+00
   1   52   73    17     4    0.0000E+00 -3.9884E+01   3.9884E+01  0.000E+00  0.000E+00  0.000E+00  2.01000E+03  1.026E-03  3.000E+00  1.630E+03  0.000E+00  0.000E+00
   1   51   72    17     5    3.9884E+01 -2.3321E+02   2.7309E+02  0.000E+00  0.000E+00  0.000E+00  1.99800E+03  3.645E-03  3.000E+00  1.630E+03  0.000E+00  0.000E+00
   1   50   72    17     6    2.7309E+02 -5.5209E+00   2.7861E+02  0.000E+00  0.000E+00  0.000E+00  1.99301E+03  5.374E-03  3.000E+00  1.350E+03  0.000E+00  0.000E+00
   1   49   72    17     7    2.7861E+02 -6.8886E+01   3.4750E+02  0.000E+00  0.000E+00  0.000E+00  1.98601E+03  5.536E-03  3.000E+00  1.350E+03  0.000E+00  0.000E+00
   1   48   72    17     8    3.4750E+02 -9.8353E+01   4.4585E+02  0.000E+00  0.000E+00  0.000E+00  1.97901E+03  6.381E-03  3.000E+00  1.350E+03  0.000E+00  0.000E+00
   1   47   72    17     9    4.4585E+02 -1.6510E+02   6.1095E+02  0.000E+00  0.000E+00  0.000E+00  1.97201E+03  7.749E-03  3.000E+00  1.350E+03  0.000E+00  0.000E+00
   1   46   72    17    10    6.1095E+02 -5.7456E+00   6.1670E+02  0.000E+00  0.000E+00  0.000E+00  1.96601E+03  8.684E-03  3.000E+00  1.350E+03  0.000E+00  0.000E+00
   1   45   72    17    11    6.1670E+02  7.2957E+00   6.0940E+02  0.000E+00  0.000E+00  0.000E+00  1.96001E+03  8.766E-03  3.000E+00  1.630E+03  0.000E+00  0.000E+00
   1   44   73    17    12    6.0940E+02 -7.1813E+00   6.1658E+02  0.000E+00  0.000E+00  0.000E+00  1.95201E+03  8.963E-03  3.000E+00  1.630E+03  0.000E+00  0.000E+00
   1   43   73    17    13    6.1658E+02 -2.7704E+01   6.4429E+02  0.000E+00  0.000E+00  0.000E+00  1.94701E+03  9.965E-03  3.000E+00  1.350E+03  0.000E+00  0.000E+00
   1   42   73    17    14    6.4429E+02  1.1397E+01   6.3289E+02  0.000E+00  0.000E+00  0.000E+00  1.94401E+03  1.026E-02  3.000E+00  1.630E+03  0.000E+00  0.000E+00
   1   41   74    17    15    6.3289E+02 -2.9691E+01   6.6258E+02  0.000E+00  0.000E+00  0.000E+00  1.93801E+03  1.051E-02  3.000E+00  1.909E+03  0.000E+00  0.000E+00
   1   40   75    17    16    6.6258E+02 -3.3304E+01   6.9588E+02  0.000E+00  0.000E+00  0.000E+00  1.93401E+03  1.081E-02  3.000E+00  9.546E+02  0.000E+00  0.000E+00
   1   37   55    18     1    0.0000E+00  0.0000E+00   0.0000E+00  0.000E+00  0.000E+00  0.000E+00  2.00700E+03  0.000E+00  3.000E+00  1.630E+03  0.000E+00  0.000E+00
   1   36   54    19     1    0.0000E+00  0.0000E+00   0.0000E+00  0.000E+00  0.000E+00  0.000E+00  2.00700E+03  0.000E+00  3.000E+00  1.630E+03  0.000E+00  0.000E+00



1
  VOLUMETRIC BUDGET FOR UNSATURATED ZONE BENEATH STREAMS AT END OF TIME STEP    30 STRESS PERIOD   8
  ------------------------------------------------------------------------------------------------

    CUMULATIVE VOLUMES             L**3    RATES FOR THIS TIME STEP         L**3/T
    ------------------                     ------------------------


          STREAM LOSS =       222496.3125            STREAM LOSS =          965.4590
    CHANGE IN STORAGE =           -3.8600      CHANGE IN STORAGE =            1.2177
       RECHARGE TO GW =       222498.9688         RECHARGE TO GW =          964.2415

             TOTAL IN =       222500.1719               TOTAL IN =          965.4590

            TOTAL OUT =       222498.9688              TOTAL OUT =          965.4592

             IN - OUT =            1.2031               IN - OUT =       -1.8311E-04

  PERCENT DISCREPANCY =            0.00      PERCENT DISCREPANCY =            -0.00



 ***WARNING***NUZTOP IS 3 AND ALL LAYERS  IN ROW           39  AND COLUMN           76  ARE INACTIVE.
 UNSATURATED FLOW WILL NOT BE ADDED TO ANY LAYER-- SOME WATER MAY FLOW PAST LOWEST LAYER
 ***WARNING***NUZTOP IS 3 AND ALL LAYERS  IN ROW           40  AND COLUMN           76  ARE INACTIVE.
 UNSATURATED FLOW WILL NOT BE ADDED TO ANY LAYER-- SOME WATER MAY FLOW PAST LOWEST LAYER


UNSATURATED ZONE PACKAGE VOLUMETRIC BUDGET FOR  TIME STEP    30 STRESS PERIOD    8
  ------------------------------------------------------------------------------



     CUMULATIVE VOLUMES      L**3       RATES FOR THIS TIME STEP      L**3/T
     ------------------                 ------------------------

           IN:                                      IN:
           ---                                      ---
        INFILTRATION =       26653.0419          INFILTRATION =       0.0000E+00

          OUT:                                     OUT:
          ----                                     ----
              UZF ET =      658120.3756                UZF ET =           0.0000
        UZF RECHARGE =     2996607.2045          UZF RECHARGE =        6596.0705

            IN - OUT =    -3628074.5381              IN - OUT =       -6596.0705

          STORAGE:                                 STORAGE:
          --------                                 --------
      STORAGE CHANGE =    -3626093.8416        STORAGE CHANGE =       -6596.0705

 PERCENT DISCREPANCY IS DIFFERENCE BETWEEN IN-OUT MINUS CHANGE IN STORAGE
 DIVIDED BY THE AVERAGE OF IN AND OUT TIMES 100

 PERCENT DISCREPANCY =          -0.01     PERCENT DISCREPANCY =           0.00






1
  VOLUMETRIC BUDGET FOR AGRICULTURAL FIELDS AT  END OF TIME STEP   30, STRESS PERIOD   8
  ------------------------------------------------------------------------------

     CUMULATIVE VOLUMES      L**3       RATES FOR THIS TIME STEP      L**3/T
     ------------------                 ------------------------

           IN:                                      IN:
           ---                                      ---
               AG WELLS  =           0.0000                 AG WELLS  =          -0.0000
      DIVERSION SEGMENTS =           0.0000        DIVERSION SEGMENTS =           0.0000
       IRRIGATION PONDS  =           0.0000         IRRIGATION PONDS  =           0.0000
           GW IRRIGATION =           0.0000             GW IRRIGATION =           0.0000
           SW IRRIGATION =           0.0000             SW IRRIGATION =           0.0000
        SYSTEM LOSSES GW =           0.0000          SYSTEM LOSSES GW =           0.0000
        SYSTEM LOSSES SW =           0.0000          SYSTEM LOSSES SW =          -0.0000

                TOTAL IN =           0.0000                  TOTAL IN =           0.0000

          OUT:                                     OUT:
          ----                                     ----
               AG WELLS  =           0.0000                 AG WELLS  =           0.0000
      DIVERSION SEGMENTS =           0.0000        DIVERSION SEGMENTS =           0.0000
       IRRIGATION PONDS  =           0.0000         IRRIGATION PONDS  =           0.0000
           GW IRRIGATION =           0.0000             GW IRRIGATION =           0.0000
           SW IRRIGATION =           0.0000             SW IRRIGATION =           0.0000
        SYSTEM LOSSES GW =           0.0000          SYSTEM LOSSES GW =           0.0000
        SYSTEM LOSSES SW =           0.0000          SYSTEM LOSSES SW =           0.0000

               TOTAL OUT =           0.0000                 TOTAL OUT =           0.0000

                IN - OUT =           0.0000                  IN - OUT =           0.0000

     PERCENT DISCREPANCY =           0.00         PERCENT DISCREPANCY =           0.00



1
  VOLUMETRIC BUDGET FOR ENTIRE MODEL AT END OF TIME STEP   30, STRESS PERIOD   8
  ------------------------------------------------------------------------------

     CUMULATIVE VOLUMES      L**3       RATES FOR THIS TIME STEP      L**3/T
     ------------------                 ------------------------

           IN:                                      IN:
           ---                                      ---
             STORAGE     =     1113269.7500               STORAGE     =       14750.1523
       CONSTANT HEAD     =          96.6263         CONSTANT HEAD     =           1.3137
      STREAM LEAKAGE     =      560178.6875        STREAM LEAKAGE     =        2908.7834
        UZF RECHARGE     =     2996622.5000          UZF RECHARGE     =        6596.0723
               GW ET     =           0.0000                 GW ET     =           0.0000
     SURFACE LEAKAGE     =           0.0000       SURFACE LEAKAGE     =           0.0000
           AG WELLS      =           0.0000             AG WELLS      =           0.0000

                TOTAL IN =     4670167.5000                  TOTAL IN =       24256.3223

          OUT:                                     OUT:
          ----                                     ----
             STORAGE     =     1141571.3750               STORAGE     =         248.5244
       CONSTANT HEAD     =        7535.4375         CONSTANT HEAD     =          33.6481
      STREAM LEAKAGE     =     2728433.5000        STREAM LEAKAGE     =       11301.2305
        UZF RECHARGE     =           0.0000          UZF RECHARGE     =           0.0000
               GW ET     =      765035.0625                 GW ET     =       12586.9570
     SURFACE LEAKAGE     =       28380.9355       SURFACE LEAKAGE     =         111.9997
           AG WELLS      =           0.0000             AG WELLS      =           0.0000

               TOTAL OUT =     4670956.5000                 TOTAL OUT =       24282.3594

                IN - OUT =        -789.0000                  IN - OUT =         -26.0371

     PERCENT DISCREPANCY =          -0.02         PERCENT DISCREPANCY =          -0.11






         TIME SUMMARY AT END OF TIME STEP   30 IN STRESS PERIOD    8
                    SECONDS     MINUTES      HOURS       DAYS        YEARS
                    -----------------------------------------------------------
   TIME STEP LENGTH  86400.      1440.0      24.000      1.0000     2.73785E-03
 STRESS PERIOD TIME 2.59200E+06  43200.      720.00      30.000     8.21355E-02
         TOTAL TIME 1.84032E+07 3.06720E+05  5112.0      213.00     0.58316    
1
1
                            STRESS PERIOD NO.    9, LENGTH =   31.00000    
                            -----------------------------------------------

                              NUMBER OF TIME STEPS =    31

                               MULTIPLIER FOR DELT =     1.000

                            INITIAL TIME STEP SIZE =   1.000000    
 USING INFILTRATION RATE FROM PREVIOUS STRESS 
 PERIOD.CURRENT PERIOD IS:            9

USING ET RATE FROM PREVIOUS STRESS PERIOD. CURRENT PERIOD IS:       9

 USING ET EXTINCTION DEPTH FROM PREVIOUS STRESS PERIOD. CURRENT PERIOD IS:       9

 USING EXTINCTION WATER CONTENT FROM PREVIOUS STRESS PERIOD. CURRENT PERIOD IS:       9

 PROCESSING AG STRESS PERIOD DATA

 READING AG STRESS PERIOD DATA

 READING IRRIGATION POND

 END PROCESSING AG STRESS PERIOD DATA OPTIONS
                                                   Max.-Head-Change                         Max.-Flux-Residual
  Residual-Control   Outer-Iter.   Inner-Iter.     Column Row Layer    Maximum-Head-Change  Column Row Layer    Maximum-Flux-Residual          L2-NORM 
          0                 1           6            25   33     1       0.2480225694E+01      46   42    1        -0.4348906269E+02      0.3717531005E+03
          0                 2           6            52   56     1       0.1500914819E+01      63   38    1         0.9603850581E+02      0.1867220742E+03
          0                 3           3            64   38     1       0.5576674140E-01      64   38    1         0.7862553908E+02      0.1179718500E+03
          0                 4           3            63   38     1       0.5966191324E-01      63   38    1         0.8428971190E+02      0.1198348658E+03
          0                 5           3            64   38     1       0.2664512345E-01      64   38    1         0.3774686438E+02      0.4691665144E+02
          0                 6           2            64   38     1       0.7584623814E-02      64   38    1         0.1078005430E+02      0.1245901389E+02
          0                 7           2            64   38     1       0.1647025653E-02      64   38    1         0.2345283361E+01      0.2747276847E+01
          0                 8           1            64   38     1       0.3008432684E-03      64   38    1         0.4287705535E+00      0.6647053248E+00

    ------------------------------------------------
       NWT REQUIRED            8 OUTER ITERATIONS 
       AND A TOTAL OF         26 INNER ITERATIONS.
    ------------------------------------------------

 OUTPUT CONTROL FOR STRESS PERIOD    9   TIME STEP    1
    PRINT BUDGET
    SAVE BUDGET
    SAVE HEAD FOR ALL LAYERS



 STREAM LISTING     PERIOD      9   STEP        1

 LAYER ROW COL. STREAM  RCH.   FLOW INTO    STREAM     FLOW OUT OF   OVRLND.    DIRECT     STREAM      STREAM      STREAM     STREAM  STREAMBED   FLOW TO   CHNG. UNSAT. 
                SEG.NO.  NO.   STRM. RCH.    LOSS       STRM. RCH.   RUNOFF     PRECIP       ET         HEAD        DEPTH      WIDTH  CONDCTNC.   WAT. TAB.

   1   18   62     1     1    0.0000E+00  8.7022E-01   0.0000E+00  8.702E-01  0.000E+00  0.000E+00  2.07300E+03  2.398E-05  3.000E+00  1.909E+03  0.000E+00  0.000E+00
   1   19   63     1     2    0.0000E+00 -5.1101E+01   5.1972E+01  8.702E-01  0.000E+00  0.000E+00  2.06300E+03  1.260E-03  3.000E+00  1.909E+03  0.000E+00  0.000E+00
   1   20   64     1     3    5.1972E+01 -7.9576E+01   1.3242E+02  8.702E-01  0.000E+00  0.000E+00  2.05400E+03  2.946E-03  3.000E+00  1.630E+03  0.000E+00  0.000E+00
   1   21   64     1     4    1.3242E+02 -8.3611E+01   2.1690E+02  8.702E-01  0.000E+00  0.000E+00  2.05101E+03  5.321E-03  3.000E+00  1.630E+03  0.000E+00  0.000E+00
   1   22   65     1     5    2.1690E+02 -1.2415E+01   2.3018E+02  8.702E-01  0.000E+00  0.000E+00  2.04801E+03  5.256E-03  3.000E+00  9.546E+02  0.000E+00  0.000E+00
   1   20   66     2     1    0.0000E+00 -5.1321E+01   5.1321E+01  0.000E+00  0.000E+00  0.000E+00  2.05300E+03  1.766E-03  3.000E+00  1.909E+03  0.000E+00  0.000E+00
   1   21   65     2     2    5.1321E+01  9.2402E+00   4.2081E+01  0.000E+00  0.000E+00  0.000E+00  2.05100E+03  2.548E-03  3.000E+00  1.630E+03  0.000E+00  0.000E+00
   1   22   65     2     3    4.2081E+01 -1.1061E+01   5.3142E+01  0.000E+00  0.000E+00  0.000E+00  2.04800E+03  1.875E-03  3.000E+00  6.750E+02  0.000E+00  0.000E+00
   1   22   65     3     1    2.8333E+02 -8.6059E+00   2.9193E+02  0.000E+00  0.000E+00  0.000E+00  2.04801E+03  5.512E-03  3.000E+00  6.750E+02  0.000E+00  0.000E+00
   1   23   65     3     2    2.9193E+02 -9.0933E+01   3.8286E+02  0.000E+00  0.000E+00  0.000E+00  2.04501E+03  9.726E-03  3.000E+00  1.630E+03  0.000E+00  0.000E+00
   1   24   66     3     3    3.8286E+02 -2.0455E+01   4.0332E+02  0.000E+00  0.000E+00  0.000E+00  2.04537E+03  3.713E-01  3.000E+00  1.909E+03  0.000E+00  0.000E+00
   1   25   67     3     4    4.0332E+02  1.4519E+01   3.8880E+02  0.000E+00  0.000E+00  0.000E+00  2.04501E+03  1.123E-02  3.000E+00  1.909E+03  0.000E+00  0.000E+00
   1   26   68     3     5    3.8880E+02 -1.7633E+01   4.0643E+02  0.000E+00  0.000E+00  0.000E+00  2.04201E+03  9.842E-03  3.000E+00  1.630E+03  0.000E+00  0.000E+00
   1   27   68     3     6    4.0643E+02  7.8190E+01   3.2824E+02  0.000E+00  0.000E+00  0.000E+00  2.04101E+03  8.311E-03  3.000E+00  1.630E+03  0.000E+00  0.000E+00
   1   28   69     3     7    3.2824E+02  9.7776E+01   2.3047E+02  0.000E+00  0.000E+00  0.000E+00  2.03601E+03  5.727E-03  3.000E+00  1.630E+03  9.786E+01 -8.763E-02
   1   29   69     3     8    2.3047E+02  3.4966E+01   1.9550E+02  0.000E+00  0.000E+00  0.000E+00  2.02900E+03  4.490E-03  3.000E+00  1.350E+03  0.000E+00  0.000E+00
   1   30   69     3     9    1.9550E+02  1.2875E+01   1.8263E+02  0.000E+00  0.000E+00  0.000E+00  2.02300E+03  4.012E-03  3.000E+00  1.630E+03  0.000E+00  0.000E+00
   1   31   70     3    10    1.8263E+02 -1.1203E+02   2.9466E+02  0.000E+00  0.000E+00  0.000E+00  2.01100E+03  4.613E-03  3.000E+00  1.630E+03  0.000E+00  0.000E+00
   1   32   70     3    11    2.9466E+02 -2.0588E+02   5.0054E+02  0.000E+00  0.000E+00  0.000E+00  2.00501E+03  7.556E-03  3.000E+00  1.350E+03  0.000E+00  0.000E+00
   1   33   70     3    12    5.0054E+02  2.1911E+01   4.7863E+02  0.000E+00  0.000E+00  0.000E+00  2.00301E+03  6.988E-03  3.000E+00  1.630E+03  0.000E+00  0.000E+00
   1   34   69     3    13    4.7863E+02 -2.8016E+01   5.0664E+02  0.000E+00  0.000E+00  0.000E+00  1.98601E+03  6.115E-03  3.000E+00  1.630E+03  0.000E+00  0.000E+00
   1   35   69     3    14    5.0664E+02 -4.1414E+01   5.4806E+02  0.000E+00  0.000E+00  0.000E+00  1.97301E+03  6.905E-03  3.000E+00  1.350E+03  0.000E+00  0.000E+00
   1   36   69     3    15    5.4806E+02  1.1747E+01   5.3631E+02  0.000E+00  0.000E+00  0.000E+00  1.96701E+03  7.695E-03  3.000E+00  1.350E+03  0.000E+00  0.000E+00
   1   37   69     3    16    5.3631E+02  1.7306E+01   5.1901E+02  0.000E+00  0.000E+00  0.000E+00  1.95901E+03  7.570E-03  3.000E+00  1.350E+03  0.000E+00  0.000E+00
   1   38   69     3    17    5.1901E+02  2.2316E+01   4.9669E+02  0.000E+00  0.000E+00  0.000E+00  1.95301E+03  8.004E-03  3.000E+00  1.630E+03  0.000E+00  0.000E+00
   1   39   70     3    18    4.9669E+02 -6.5666E+00   5.0326E+02  0.000E+00  0.000E+00  0.000E+00  1.94601E+03  7.101E-03  3.000E+00  9.546E+02  0.000E+00  0.000E+00
   1   25   49     4     1    0.0000E+00 -1.6497E+02   1.6497E+02  0.000E+00  0.000E+00  0.000E+00  2.03500E+03  2.443E-03  3.000E+00  1.909E+03  0.000E+00  0.000E+00
   1   26   50     4     2    1.6497E+02 -9.9359E+01   2.6433E+02  0.000E+00  0.000E+00  0.000E+00  2.02600E+03  4.705E-03  3.000E+00  1.909E+03  0.000E+00  0.000E+00
   1   27   51     4     3    2.6433E+02 -8.1480E+01   3.4581E+02  0.000E+00  0.000E+00  0.000E+00  2.01901E+03  6.040E-03  3.000E+00  1.630E+03  0.000E+00  0.000E+00
   1   28   51     4     4    3.4581E+02 -8.9614E+01   4.3542E+02  0.000E+00  0.000E+00  0.000E+00  2.01401E+03  7.400E-03  3.000E+00  1.630E+03  0.000E+00  0.000E+00
   1   29   52     4     5    4.3542E+02 -5.3178E+01   4.8860E+02  0.000E+00  0.000E+00  0.000E+00  2.00901E+03  8.184E-03  3.000E+00  1.630E+03  0.000E+00  0.000E+00
   1   30   52     4     6    4.8860E+02 -1.9752E+01   5.0835E+02  0.000E+00  0.000E+00  0.000E+00  2.00401E+03  8.096E-03  3.000E+00  1.350E+03  0.000E+00  0.000E+00
   1   31   52     4     7    5.0835E+02 -2.6353E+01   5.3471E+02  0.000E+00  0.000E+00  0.000E+00  1.99901E+03  9.257E-03  3.000E+00  1.350E+03  0.000E+00  0.000E+00
   1   32   52     4     8    5.3471E+02 -5.1953E+00   5.3990E+02  0.000E+00  0.000E+00  0.000E+00  1.99701E+03  9.580E-03  3.000E+00  1.630E+03  0.000E+00  0.000E+00
   1   33   53     4     9    5.3990E+02  6.4426E+00   5.3346E+02  0.000E+00  0.000E+00  0.000E+00  1.99101E+03  9.389E-03  3.000E+00  1.909E+03  0.000E+00  0.000E+00
   1   34   54     4    10    5.3346E+02  2.9193E+01   5.0427E+02  0.000E+00  0.000E+00  0.000E+00  1.98701E+03  9.497E-03  3.000E+00  1.909E+03  0.000E+00  0.000E+00
   1   35   55     4    11    5.0427E+02  4.1359E+01   4.6291E+02  0.000E+00  0.000E+00  0.000E+00  1.98201E+03  8.174E-03  3.000E+00  1.630E+03  0.000E+00  0.000E+00
   1   36   55     4    12    4.6291E+02 -6.1046E+01   5.2395E+02  0.000E+00  0.000E+00  0.000E+00  1.97601E+03  7.273E-03  3.000E+00  6.750E+02  0.000E+00  0.000E+00
   1   35   37     5     1    4.9429E+03 -6.4455E+01   5.0073E+03  0.000E+00  0.000E+00  0.000E+00  2.05403E+03  2.520E-02  3.000E+00  9.546E+02  0.000E+00  0.000E+00
   1   34   38     5     2    5.0073E+03 -1.2721E+02   5.1345E+03  0.000E+00  0.000E+00  0.000E+00  2.04603E+03  3.138E-02  3.000E+00  1.909E+03  0.000E+00  0.000E+00
   1   33   39     5     3    5.1345E+03 -2.4528E+02   5.3798E+03  0.000E+00  0.000E+00  0.000E+00  2.03804E+03  3.810E-02  3.000E+00  1.909E+03  0.000E+00  0.000E+00
   1   32   40     5     4    5.3798E+03  1.0955E+02   5.2703E+03  0.000E+00  0.000E+00  0.000E+00  2.03704E+03  3.793E-02  3.000E+00  1.630E+03  0.000E+00  0.000E+00
   1   32   41     5     5    5.2703E+03 -1.4145E+02   5.4117E+03  0.000E+00  0.000E+00  0.000E+00  2.03003E+03  3.180E-02  3.000E+00  1.350E+03  0.000E+00  0.000E+00
   1   32   42     5     6    5.4117E+03 -1.7531E+02   5.5870E+03  0.000E+00  0.000E+00  0.000E+00  2.02504E+03  3.804E-02  3.000E+00  1.350E+03  0.000E+00  0.000E+00
   1   32   43     5     7    5.5870E+03 -6.1903E+01   5.6489E+03  0.000E+00  0.000E+00  0.000E+00  2.02304E+03  4.270E-02  3.000E+00  1.630E+03  0.000E+00  0.000E+00
   1   33   44     5     8    5.6489E+03 -1.5147E+02   5.8004E+03  0.000E+00  0.000E+00  0.000E+00  2.01904E+03  4.324E-02  3.000E+00  1.909E+03  0.000E+00  0.000E+00
   1   34   45     5     9    5.8004E+03 -3.0242E+01   5.8306E+03  0.000E+00  0.000E+00  0.000E+00  2.01604E+03  3.999E-02  3.000E+00  1.630E+03  0.000E+00  0.000E+00
   1   34   46     5    10    5.8306E+03 -1.0885E+02   5.9395E+03  0.000E+00  0.000E+00  0.000E+00  2.01104E+03  3.675E-02  3.000E+00  1.350E+03  0.000E+00  0.000E+00
   1   34   47     5    11    5.9395E+03  5.6359E+00   5.9338E+03  0.000E+00  0.000E+00  0.000E+00  2.00703E+03  2.907E-02  3.000E+00  6.750E+02  0.000E+00  0.000E+00
   1   34   47     6     1    5.9530E+03  4.1766E+00   5.9488E+03  0.000E+00  0.000E+00  0.000E+00  2.00703E+03  2.691E-02  3.000E+00  6.750E+02  0.000E+00  0.000E+00
   1   34   48     6     2    5.9488E+03 -1.3206E+02   6.0809E+03  0.000E+00  0.000E+00  0.000E+00  2.00104E+03  3.528E-02  3.000E+00  1.630E+03  0.000E+00  0.000E+00
   1   35   49     6     3    6.0809E+03 -2.7598E+02   6.3569E+03  0.000E+00  0.000E+00  0.000E+00  1.99404E+03  3.784E-02  3.000E+00  1.630E+03  0.000E+00  0.000E+00
   1   35   50     6     4    6.3569E+03 -2.0586E+02   6.5627E+03  0.000E+00  0.000E+00  0.000E+00  1.99005E+03  4.635E-02  3.000E+00  1.350E+03  0.000E+00  0.000E+00
   1   35   51     6     5    6.5627E+03  2.5837E+01   6.5369E+03  0.000E+00  0.000E+00  0.000E+00  1.98905E+03  4.682E-02  3.000E+00  1.630E+03  0.000E+00  0.000E+00
   1   36   52     6     6    6.5369E+03 -1.3783E+02   6.6747E+03  0.000E+00  0.000E+00  0.000E+00  1.98404E+03  4.167E-02  3.000E+00  1.630E+03  0.000E+00  0.000E+00
   1   36   53     6     7    6.6747E+03 -2.3745E+02   6.9122E+03  0.000E+00  0.000E+00  0.000E+00  1.98005E+03  5.405E-02  3.000E+00  1.630E+03  0.000E+00  0.000E+00
   1   37   54     6     8    6.9122E+03 -5.3935E+01   6.9661E+03  0.000E+00  0.000E+00  0.000E+00  1.98006E+03  5.741E-02  3.000E+00  1.909E+03  0.000E+00  0.000E+00
   1   36   55     6     9    6.9661E+03 -5.1458E+01   7.0176E+03  0.000E+00  0.000E+00  0.000E+00  1.97604E+03  4.381E-02  3.000E+00  9.546E+02  0.000E+00  0.000E+00
   1   36   34     7     1    2.0553E+03 -5.2275E+01   2.1075E+03  0.000E+00  0.000E+00  0.000E+00  2.07701E+03  1.358E-02  3.000E+00  9.546E+02  0.000E+00  0.000E+00
   1   35   35     7     2    2.1075E+03 -1.0464E+02   2.2122E+03  0.000E+00  0.000E+00  0.000E+00  2.06702E+03  1.828E-02  3.000E+00  1.630E+03  0.000E+00  0.000E+00
   1   35   36     7     3    2.2122E+03  2.7080E+01   2.1851E+03  0.000E+00  0.000E+00  0.000E+00  2.06202E+03  1.823E-02  3.000E+00  1.350E+03  0.000E+00  0.000E+00
   1   35   37     7     4    2.1851E+03 -5.3159E+01   2.2383E+03  0.000E+00  0.000E+00  0.000E+00  2.05401E+03  1.396E-02  3.000E+00  6.750E+02  0.000E+00  0.000E+00
   1   52   49     8     1    0.0000E+00 -2.1478E+02   2.1478E+02  0.000E+00  0.000E+00  0.000E+00  2.12100E+03  2.950E-03  3.000E+00  1.909E+03  0.000E+00  0.000E+00
   1   51   48     8     2    2.1478E+02 -2.0412E+02   4.1890E+02  0.000E+00  0.000E+00  0.000E+00  2.11701E+03  9.009E-03  3.000E+00  1.909E+03  0.000E+00  0.000E+00
   1   50   47     8     3    4.1890E+02  9.7776E+01   3.2113E+02  0.000E+00  0.000E+00  0.000E+00  2.11701E+03  7.659E-03  3.000E+00  1.630E+03  9.776E+01  1.904E-02
   1   49   47     8     4    3.2113E+02 -2.1388E+02   5.3501E+02  0.000E+00  0.000E+00  0.000E+00  2.10901E+03  7.818E-03  3.000E+00  1.630E+03  0.000E+00  0.000E+00
   1   48   46     8     5    5.3501E+02  1.0334E+01   5.2467E+02  0.000E+00  0.000E+00  0.000E+00  2.10701E+03  1.170E-02  3.000E+00  1.630E+03  0.000E+00  0.000E+00
   1   47   46     8     6    5.2467E+02  8.8271E+01   4.3640E+02  0.000E+00  0.000E+00  0.000E+00  2.10501E+03  1.043E-02  3.000E+00  1.350E+03  0.000E+00  0.000E+00
   1   46   46     8     7    4.3640E+02  8.1000E+01   3.5540E+02  0.000E+00  0.000E+00  0.000E+00  2.10301E+03  8.218E-03  3.000E+00  1.350E+03  8.104E+01 -3.890E-02
   1   45   46     8     8    3.5540E+02  8.1000E+01   2.7440E+02  0.000E+00  0.000E+00  0.000E+00  2.09901E+03  5.819E-03  3.000E+00  1.350E+03  8.107E+01 -6.809E-02
   1   44   46     8     9    2.7440E+02  8.1000E+01   1.9340E+02  0.000E+00  0.000E+00  0.000E+00  2.09100E+03  4.241E-03  3.000E+00  1.350E+03  8.106E+01 -6.147E-02
   1   43   46     8    10    1.9340E+02  1.0906E+02   8.4338E+01  0.000E+00  0.000E+00  0.000E+00  2.08000E+03  3.102E-03  3.000E+00  1.350E+03  0.000E+00  0.000E+00
   1   42   46     8    11    8.4338E+01  8.4338E+01   0.0000E+00  0.000E+00  0.000E+00  0.000E+00  2.07200E+03  5.391E-04  3.000E+00  1.630E+03  0.000E+00  0.000E+00
   1   41   45     8    12    0.0000E+00 -1.1559E+02   1.1559E+02  0.000E+00  0.000E+00  0.000E+00  2.06000E+03  1.971E-03  3.000E+00  1.630E+03  0.000E+00  0.000E+00
   1   40   45     8    13    1.1559E+02  8.1000E+01   3.4588E+01  0.000E+00  0.000E+00  0.000E+00  2.05400E+03  2.351E-03  3.000E+00  1.350E+03  8.117E+01 -1.661E-01
   1   39   45     8    14    3.4588E+01  3.4588E+01   0.0000E+00  0.000E+00  0.000E+00  0.000E+00  2.04600E+03  3.031E-04  3.000E+00  1.350E+03  2.939E+01  5.196E+00
   1   38   45     8    15    0.0000E+00  0.0000E+00   0.0000E+00  0.000E+00  0.000E+00  0.000E+00  2.03500E+03  0.000E+00  3.000E+00  1.350E+03  0.000E+00  0.000E+00
   1   37   45     8    16    0.0000E+00  0.0000E+00   0.0000E+00  0.000E+00  0.000E+00  0.000E+00  2.02700E+03  0.000E+00  3.000E+00  1.630E+03  0.000E+00  0.000E+00
   1   36   46     8    17    0.0000E+00  0.0000E+00   0.0000E+00  0.000E+00  0.000E+00  0.000E+00  2.02100E+03  0.000E+00  3.000E+00  1.630E+03  0.000E+00  0.000E+00
   1   35   46     8    18    0.0000E+00  0.0000E+00   0.0000E+00  0.000E+00  0.000E+00  0.000E+00  2.01400E+03  0.000E+00  3.000E+00  1.630E+03  0.000E+00  0.000E+00
   1   34   47     8    19    0.0000E+00 -1.9174E+01   1.9174E+01  0.000E+00  0.000E+00  0.000E+00  2.00700E+03  6.358E-04  3.000E+00  9.546E+02  0.000E+00  0.000E+00
   1   37   26     9     1    0.0000E+00  0.0000E+00   0.0000E+00  0.000E+00  0.000E+00  0.000E+00  2.14700E+03  0.000E+00  3.000E+00  1.350E+03  0.000E+00  0.000E+00
   1   37   27     9     2    0.0000E+00 -7.4030E+01   7.4030E+01  0.000E+00  0.000E+00  0.000E+00  2.13400E+03  1.343E-03  3.000E+00  1.350E+03  0.000E+00  0.000E+00
   1   37   28     9     3    7.4030E+01 -1.4018E+02   2.1421E+02  0.000E+00  0.000E+00  0.000E+00  2.12500E+03  3.358E-03  3.000E+00  1.630E+03  0.000E+00  0.000E+00
   1   36   29     9     4    2.1421E+02  1.0374E+01   2.0383E+02  0.000E+00  0.000E+00  0.000E+00  2.11500E+03  4.263E-03  3.000E+00  1.630E+03  0.000E+00  0.000E+00
   1   36   30     9     5    2.0383E+02 -8.5482E+01   2.8932E+02  0.000E+00  0.000E+00  0.000E+00  2.10700E+03  4.526E-03  3.000E+00  1.350E+03  0.000E+00  0.000E+00
   1   36   31     9     6    2.8932E+02 -2.0443E+02   4.9374E+02  0.000E+00  0.000E+00  0.000E+00  2.09801E+03  6.082E-03  3.000E+00  1.350E+03  0.000E+00  0.000E+00
   1   36   32     9     7    4.9374E+02 -1.5110E+02   6.4484E+02  0.000E+00  0.000E+00  0.000E+00  2.09101E+03  7.925E-03  3.000E+00  1.350E+03  0.000E+00  0.000E+00
   1   36   33     9     8    6.4484E+02 -1.3813E+02   7.8297E+02  0.000E+00  0.000E+00  0.000E+00  2.08401E+03  9.078E-03  3.000E+00  1.350E+03  0.000E+00  0.000E+00
   1   36   34     9     9    7.8297E+02 -4.1087E+01   8.2406E+02  0.000E+00  0.000E+00  0.000E+00  2.07701E+03  7.468E-03  3.000E+00  6.750E+02  0.000E+00  0.000E+00
   1   58   37    10     1    0.0000E+00 -1.2569E+02   1.2569E+02  0.000E+00  0.000E+00  0.000E+00  2.15000E+03  3.076E-03  3.000E+00  1.350E+03  0.000E+00  0.000E+00
   1   57   37    10     2    1.2569E+02 -9.2977E+01   2.1867E+02  0.000E+00  0.000E+00  0.000E+00  2.14701E+03  5.038E-03  3.000E+00  1.630E+03  0.000E+00  0.000E+00
   1   56   38    10     3    2.1867E+02 -1.3499E+01   2.3217E+02  0.000E+00  0.000E+00  0.000E+00  2.14301E+03  5.492E-03  3.000E+00  1.630E+03  0.000E+00  0.000E+00
   1   55   38    10     4    2.3217E+02 -1.7113E+02   4.0330E+02  0.000E+00  0.000E+00  0.000E+00  2.13801E+03  6.607E-03  3.000E+00  1.350E+03  0.000E+00  0.000E+00
   1   54   38    10     5    4.0330E+02 -1.1216E+02   5.1546E+02  0.000E+00  0.000E+00  0.000E+00  2.13501E+03  8.985E-03  3.000E+00  1.350E+03  0.000E+00  0.000E+00
   1   53   38    10     6    5.1546E+02 -1.0725E+02   6.2271E+02  0.000E+00  0.000E+00  0.000E+00  2.13201E+03  1.022E-02  3.000E+00  1.350E+03  0.000E+00  0.000E+00
   1   52   38    10     7    6.2271E+02 -1.6573E+02   7.8844E+02  0.000E+00  0.000E+00  0.000E+00  2.12901E+03  1.389E-02  3.000E+00  1.630E+03  0.000E+00  0.000E+00
   1   51   39    10     8    7.8844E+02  1.2694E+01   7.7575E+02  0.000E+00  0.000E+00  0.000E+00  2.12801E+03  1.477E-02  3.000E+00  1.630E+03  0.000E+00  0.000E+00
   1   50   39    10     9    7.7575E+02 -7.8699E+01   8.5445E+02  0.000E+00  0.000E+00  0.000E+00  2.12501E+03  1.280E-02  3.000E+00  1.630E+03  0.000E+00  0.000E+00
   1   49   38    10    10    8.5445E+02 -1.4762E+02   1.0021E+03  0.000E+00  0.000E+00  0.000E+00  2.12101E+03  1.452E-02  3.000E+00  1.909E+03  0.000E+00  0.000E+00
   1   48   37    10    11    1.0021E+03  3.0796E+01   9.7127E+02  0.000E+00  0.000E+00  0.000E+00  2.11801E+03  1.281E-02  3.000E+00  1.909E+03  0.000E+00  0.000E+00
   1   47   36    10    12    9.7127E+02 -3.3221E+02   1.3035E+03  0.000E+00  0.000E+00  0.000E+00  2.10901E+03  1.330E-02  3.000E+00  1.630E+03  0.000E+00  0.000E+00
   1   46   36    10    13    1.3035E+03 -1.2866E+02   1.4321E+03  0.000E+00  0.000E+00  0.000E+00  2.10602E+03  1.651E-02  3.000E+00  1.350E+03  0.000E+00  0.000E+00
   1   45   36    10    14    1.4321E+03 -1.6381E+02   1.5960E+03  0.000E+00  0.000E+00  0.000E+00  2.10202E+03  1.755E-02  3.000E+00  1.350E+03  0.000E+00  0.000E+00
   1   44   36    10    15    1.5960E+03 -9.1297E+01   1.6872E+03  0.000E+00  0.000E+00  0.000E+00  2.09902E+03  1.929E-02  3.000E+00  1.350E+03  0.000E+00  0.000E+00
   1   43   36    10    16    1.6872E+03  4.8666E+00   1.6824E+03  0.000E+00  0.000E+00  0.000E+00  2.09602E+03  1.836E-02  3.000E+00  1.630E+03  0.000E+00  0.000E+00
   1   42   37    10    17    1.6824E+03  9.7776E+01   1.5846E+03  0.000E+00  0.000E+00  0.000E+00  2.09002E+03  1.516E-02  3.000E+00  1.630E+03  9.785E+01 -7.523E-02
   1   41   37    10    18    1.5846E+03 -2.2589E+02   1.8105E+03  0.000E+00  0.000E+00  0.000E+00  2.08001E+03  1.467E-02  3.000E+00  1.350E+03  0.000E+00  0.000E+00
   1   40   37    10    19    1.8105E+03 -3.2785E+02   2.1383E+03  0.000E+00  0.000E+00  0.000E+00  2.07402E+03  2.019E-02  3.000E+00  1.630E+03  0.000E+00  0.000E+00
   1   39   38    10    20    2.1383E+03 -2.9015E+01   2.1674E+03  0.000E+00  0.000E+00  0.000E+00  2.07102E+03  2.293E-02  3.000E+00  1.630E+03  0.000E+00  0.000E+00
   1   38   38    10    21    2.1674E+03  2.1600E+01   2.1458E+03  0.000E+00  0.000E+00  0.000E+00  2.06702E+03  2.063E-02  3.000E+00  1.630E+03  0.000E+00  0.000E+00
   1   37   37    10    22    2.1458E+03 -2.9880E+02   2.4446E+03  0.000E+00  0.000E+00  0.000E+00  2.06102E+03  2.141E-02  3.000E+00  1.630E+03  0.000E+00  0.000E+00
   1   36   37    10    23    2.4446E+03 -2.0927E+02   2.6538E+03  0.000E+00  0.000E+00  0.000E+00  2.05702E+03  2.399E-02  3.000E+00  1.350E+03  0.000E+00  0.000E+00
   1   35   37    10    24    2.6538E+03 -5.0753E+01   2.7046E+03  0.000E+00  0.000E+00  0.000E+00  2.05402E+03  1.753E-02  3.000E+00  6.750E+02  0.000E+00  0.000E+00
   1   36   55    11     1    7.5415E+03 -4.0705E+01   7.5822E+03  0.000E+00  0.000E+00  0.000E+00  1.97604E+03  3.741E-02  3.000E+00  6.750E+02  0.000E+00  0.000E+00
   1   36   56    11     2    7.5822E+03 -6.2902E+01   7.6451E+03  0.000E+00  0.000E+00  0.000E+00  1.97506E+03  6.309E-02  3.000E+00  1.630E+03  0.000E+00  0.000E+00
   1   37   57    11     3    7.6451E+03 -1.4490E+02   7.7900E+03  0.000E+00  0.000E+00  0.000E+00  1.97306E+03  6.361E-02  3.000E+00  1.630E+03  0.000E+00  0.000E+00
   1   37   58    11     4    7.7900E+03 -1.0049E+02   7.8905E+03  0.000E+00  0.000E+00  0.000E+00  1.97208E+03  8.438E-02  3.000E+00  1.350E+03  0.000E+00  0.000E+00
   1   37   59    11     5    7.8905E+03 -1.9142E+00   7.8924E+03  0.000E+00  0.000E+00  0.000E+00  1.97207E+03  6.881E-02  3.000E+00  1.350E+03  0.000E+00  0.000E+00
   1   37   60    11     6    7.8924E+03 -2.1166E+01   7.9136E+03  0.000E+00  0.000E+00  0.000E+00  1.97006E+03  5.535E-02  3.000E+00  1.630E+03  0.000E+00  0.000E+00
   1   38   61    11     7    7.9136E+03 -9.4772E+01   8.0084E+03  0.000E+00  0.000E+00  0.000E+00  1.96705E+03  5.026E-02  3.000E+00  1.630E+03  0.000E+00  0.000E+00
   1   38   62    11     8    8.0084E+03 -9.7061E+01   8.1054E+03  0.000E+00  0.000E+00  0.000E+00  1.96305E+03  4.596E-02  3.000E+00  6.750E+02  0.000E+00  0.000E+00
   1   51   11    12     1    0.0000E+00 -4.8123E+02   4.8123E+02  0.000E+00  0.000E+00  0.000E+00  2.38700E+03  4.581E-03  3.000E+00  1.909E+03  0.000E+00  0.000E+00
   1   50   12    12     2    4.8123E+02 -5.4946E+01   5.3618E+02  0.000E+00  0.000E+00  0.000E+00  2.37501E+03  6.844E-03  3.000E+00  1.630E+03  0.000E+00  0.000E+00
   1   49   12    12     3    5.3618E+02 -3.7985E+02   9.1603E+02  0.000E+00  0.000E+00  0.000E+00  2.36501E+03  8.854E-03  3.000E+00  1.630E+03  0.000E+00  0.000E+00
   1   48   13    12     4    9.1603E+02 -1.7686E+02   1.0929E+03  0.000E+00  0.000E+00  0.000E+00  2.35601E+03  1.155E-02  3.000E+00  1.630E+03  0.000E+00  0.000E+00
   1   48   14    12     5    1.0929E+03 -1.6038E+02   1.2533E+03  0.000E+00  0.000E+00  0.000E+00  2.35001E+03  1.243E-02  3.000E+00  1.630E+03  0.000E+00  0.000E+00
   1   47   15    12     6    1.2533E+03 -1.6531E+02   1.4186E+03  0.000E+00  0.000E+00  0.000E+00  2.34001E+03  1.370E-02  3.000E+00  1.630E+03  0.000E+00  0.000E+00
   1   47   16    12     7    1.4186E+03 -1.2268E+02   1.5413E+03  0.000E+00  0.000E+00  0.000E+00  2.33502E+03  1.599E-02  3.000E+00  1.630E+03  0.000E+00  0.000E+00
   1   46   17    12     8    1.5413E+03  8.7450E+01   1.4538E+03  0.000E+00  0.000E+00  0.000E+00  2.32901E+03  1.498E-02  3.000E+00  1.630E+03  0.000E+00  0.000E+00
   1   46   18    12     9    1.4538E+03  1.7803E+02   1.2758E+03  0.000E+00  0.000E+00  0.000E+00  2.32101E+03  1.154E-02  3.000E+00  1.350E+03  0.000E+00  0.000E+00
   1   46   19    12    10    1.2758E+03 -1.5676E+02   1.4325E+03  0.000E+00  0.000E+00  0.000E+00  2.30601E+03  1.306E-02  3.000E+00  1.350E+03  0.000E+00  0.000E+00
   1   46   20    12    11    1.4325E+03  9.7776E+01   1.3347E+03  0.000E+00  0.000E+00  0.000E+00  2.30601E+03  1.115E-02  3.000E+00  1.630E+03  9.774E+01  3.689E-02
   1   45   21    12    12    1.3347E+03 -4.4068E+01   1.3788E+03  0.000E+00  0.000E+00  0.000E+00  2.27401E+03  9.769E-03  3.000E+00  1.909E+03  0.000E+00  0.000E+00
   1   44   22    12    13    1.3788E+03 -1.3284E+02   1.5117E+03  0.000E+00  0.000E+00  0.000E+00  2.25001E+03  1.098E-02  3.000E+00  1.909E+03  0.000E+00  0.000E+00
   1   43   23    12    14    1.5117E+03  1.6255E+02   1.3491E+03  0.000E+00  0.000E+00  0.000E+00  2.23101E+03  1.099E-02  3.000E+00  1.909E+03  0.000E+00  0.000E+00
   1   42   24    12    15    1.3491E+03 -7.8679E+01   1.4278E+03  0.000E+00  0.000E+00  0.000E+00  2.20801E+03  1.128E-02  3.000E+00  1.630E+03  0.000E+00  0.000E+00
   1   42   25    12    16    1.4278E+03 -1.4975E+01   1.4428E+03  0.000E+00  0.000E+00  0.000E+00  2.20001E+03  1.240E-02  3.000E+00  1.350E+03  0.000E+00  0.000E+00
   1   42   26    12    17    1.4428E+03  1.3318E+02   1.3096E+03  0.000E+00  0.000E+00  0.000E+00  2.18801E+03  1.071E-02  3.000E+00  1.350E+03  0.000E+00  0.000E+00
   1   42   27    12    18    1.3096E+03 -2.5545E+02   1.5650E+03  0.000E+00  0.000E+00  0.000E+00  2.17001E+03  1.110E-02  3.000E+00  1.350E+03  0.000E+00  0.000E+00
   1   42   28    12    19    1.5650E+03 -8.2593E+01   1.6476E+03  0.000E+00  0.000E+00  0.000E+00  2.15901E+03  1.269E-02  3.000E+00  1.630E+03  0.000E+00  0.000E+00
   1   41   29    12    20    1.6476E+03  1.6862E+02   1.4790E+03  0.000E+00  0.000E+00  0.000E+00  2.14201E+03  1.258E-02  3.000E+00  1.909E+03  0.000E+00  0.000E+00
   1   40   30    12    21    1.4790E+03  6.9704E+01   1.4093E+03  0.000E+00  0.000E+00  0.000E+00  2.12701E+03  1.262E-02  3.000E+00  1.909E+03  0.000E+00  0.000E+00
   1   39   31    12    22    1.4093E+03  1.1455E+02   1.2947E+03  0.000E+00  0.000E+00  0.000E+00  2.11501E+03  1.257E-02  3.000E+00  1.909E+03  1.146E+02 -4.586E-02
   1   38   32    12    23    1.2947E+03  1.1455E+02   1.1802E+03  0.000E+00  0.000E+00  0.000E+00  2.10301E+03  1.164E-02  3.000E+00  1.909E+03  1.146E+02 -2.251E-02
   1   37   33    12    24    1.1802E+03  4.8800E+00   1.1753E+03  0.000E+00  0.000E+00  0.000E+00  2.08901E+03  1.130E-02  3.000E+00  1.909E+03  0.000E+00  0.000E+00
   1   36   34    12    25    1.1753E+03 -5.5906E+01   1.2312E+03  0.000E+00  0.000E+00  0.000E+00  2.07701E+03  9.772E-03  3.000E+00  9.546E+02  0.000E+00  0.000E+00
   1   38   62    13     1    8.2841E+03 -1.0403E+02   8.3881E+03  0.000E+00  0.000E+00  0.000E+00  1.96304E+03  3.564E-02  3.000E+00  6.750E+02  0.000E+00  0.000E+00
   1   38   63    13     2    8.3881E+03 -1.3828E+01   8.4019E+03  0.000E+00  0.000E+00  0.000E+00  1.96533E+03  2.331E+00  3.000E+00  1.350E+03  0.000E+00  0.000E+00
   1   38   64    13     3    8.4019E+03  1.2787E+01   8.3892E+03  0.000E+00  0.000E+00  0.000E+00  1.96533E+03  2.331E+00  3.000E+00  1.350E+03  0.000E+00  0.000E+00
   1   38   65    13     4    8.3892E+03 -3.9154E+01   8.4283E+03  0.000E+00  0.000E+00  0.000E+00  1.96306E+03  6.329E-02  3.000E+00  1.350E+03  0.000E+00  0.000E+00
   1   38   66    13     5    8.4283E+03 -7.6547E+01   8.5049E+03  0.000E+00  0.000E+00  0.000E+00  1.96005E+03  5.452E-02  3.000E+00  1.350E+03  0.000E+00  0.000E+00
   1   38   67    13     6    8.5049E+03 -4.8483E+01   8.5533E+03  0.000E+00  0.000E+00  0.000E+00  1.95805E+03  5.238E-02  3.000E+00  1.630E+03  0.000E+00  0.000E+00
   1   39   68    13     7    8.5533E+03 -2.0652E+01   8.5740E+03  0.000E+00  0.000E+00  0.000E+00  1.95305E+03  4.718E-02  3.000E+00  1.630E+03  0.000E+00  0.000E+00
   1   39   69    13     8    8.5740E+03 -8.0583E+01   8.6546E+03  0.000E+00  0.000E+00  0.000E+00  1.94805E+03  4.980E-02  3.000E+00  1.350E+03  0.000E+00  0.000E+00
   1   39   70    13     9    8.6546E+03  1.9220E+01   8.6354E+03  0.000E+00  0.000E+00  0.000E+00  1.94604E+03  4.245E-02  3.000E+00  6.750E+02  0.000E+00  0.000E+00
   1   46   61    14     1    0.0000E+00 -2.5891E+01   2.5891E+01  0.000E+00  0.000E+00  0.000E+00  2.01700E+03  8.209E-04  3.000E+00  1.350E+03  0.000E+00  0.000E+00
   1   45   61    14     2    2.5891E+01  2.5891E+01   0.0000E+00  0.000E+00  0.000E+00  0.000E+00  2.01000E+03  3.001E-04  3.000E+00  1.350E+03  0.000E+00  0.000E+00
   1   44   61    14     3    0.0000E+00  0.0000E+00   0.0000E+00  0.000E+00  0.000E+00  0.000E+00  2.00600E+03  0.000E+00  3.000E+00  1.350E+03  0.000E+00  0.000E+00
   1   43   61    14     4    0.0000E+00  0.0000E+00   0.0000E+00  0.000E+00  0.000E+00  0.000E+00  1.99900E+03  0.000E+00  3.000E+00  1.350E+03  0.000E+00  0.000E+00
   1   42   61    14     5    0.0000E+00  0.0000E+00   0.0000E+00  0.000E+00  0.000E+00  0.000E+00  1.99300E+03  0.000E+00  3.000E+00  1.350E+03  0.000E+00  0.000E+00
   1   41   61    14     6    0.0000E+00  0.0000E+00   0.0000E+00  0.000E+00  0.000E+00  0.000E+00  1.98500E+03  0.000E+00  3.000E+00  1.350E+03  0.000E+00  0.000E+00
   1   40   61    14     7    0.0000E+00 -2.8823E+01   2.8823E+01  0.000E+00  0.000E+00  0.000E+00  1.97800E+03  9.165E-04  3.000E+00  1.350E+03  0.000E+00  0.000E+00
   1   39   61    14     8    2.8823E+01  2.8823E+01   0.0000E+00  0.000E+00  0.000E+00  0.000E+00  1.97300E+03  3.086E-04  3.000E+00  1.630E+03  0.000E+00  0.000E+00
   1   38   62    14     9    0.0000E+00 -1.7865E+02   1.7865E+02  0.000E+00  0.000E+00  0.000E+00  1.96300E+03  2.604E-03  3.000E+00  9.546E+02  0.000E+00  0.000E+00
   1   39   70    15     1    9.1386E+03  1.5252E+01   9.1234E+03  0.000E+00  0.000E+00  0.000E+00  1.94604E+03  3.658E-02  3.000E+00  6.750E+02  0.000E+00  0.000E+00
   1   39   71    15     2    9.1234E+03 -1.0639E+02   9.2297E+03  0.000E+00  0.000E+00  0.000E+00  1.94206E+03  6.054E-02  3.000E+00  1.630E+03  0.000E+00  0.000E+00
   1   40   72    15     3    9.2297E+03 -2.9134E+01   9.2589E+03  0.000E+00  0.000E+00  0.000E+00  1.94107E+03  6.502E-02  3.000E+00  1.630E+03  0.000E+00  0.000E+00
   1   40   73    15     4    9.2589E+03 -4.7534E+01   9.3064E+03  0.000E+00  0.000E+00  0.000E+00  1.93806E+03  5.761E-02  3.000E+00  1.350E+03  0.000E+00  0.000E+00
   1   40   74    15     5    9.3064E+03 -2.3806E+01   9.3302E+03  0.000E+00  0.000E+00  0.000E+00  1.93606E+03  6.174E-02  3.000E+00  1.350E+03  0.000E+00  0.000E+00
   1   40   75    15     6    9.3302E+03 -4.0300E-01   9.3306E+03  0.000E+00  0.000E+00  0.000E+00  1.93405E+03  5.471E-02  3.000E+00  6.750E+02  0.000E+00  0.000E+00
   1   40   75    16     1    1.0221E+04 -3.8657E+00   1.0225E+04  0.000E+00  0.000E+00  0.000E+00  1.93405E+03  4.958E-02  3.000E+00  6.750E+02  0.000E+00  0.000E+00
   1   40   76    16     2    1.0225E+04  0.0000E+00   1.0225E+04  0.000E+00  0.000E+00  0.000E+00  1.93307E+03  7.116E-02  3.000E+00  0.000E+00  0.000E+00  0.000E+00
   1   55   73    17     1    0.0000E+00  0.0000E+00   0.0000E+00  0.000E+00  0.000E+00  0.000E+00  2.04100E+03  0.000E+00  3.000E+00  1.350E+03  0.000E+00  0.000E+00
   1   54   73    17     2    0.0000E+00  0.0000E+00   0.0000E+00  0.000E+00  0.000E+00  0.000E+00  2.02900E+03  0.000E+00  3.000E+00  1.350E+03  0.000E+00  0.000E+00
   1   53   73    17     3    0.0000E+00  0.0000E+00   0.0000E+00  0.000E+00  0.000E+00  0.000E+00  2.01700E+03  0.000E+00  3.000E+00  1.350E+03  0.000E+00  0.000E+00
   1   52   73    17     4    0.0000E+00 -5.3571E+01   5.3571E+01  0.000E+00  0.000E+00  0.000E+00  2.01000E+03  1.226E-03  3.000E+00  1.630E+03  0.000E+00  0.000E+00
   1   51   72    17     5    5.3571E+01 -2.4641E+02   2.9998E+02  0.000E+00  0.000E+00  0.000E+00  1.99800E+03  3.922E-03  3.000E+00  1.630E+03  0.000E+00  0.000E+00
   1   50   72    17     6    2.9998E+02 -1.9113E+01   3.1909E+02  0.000E+00  0.000E+00  0.000E+00  1.99301E+03  5.759E-03  3.000E+00  1.350E+03  0.000E+00  0.000E+00
   1   49   72    17     7    3.1909E+02 -8.2767E+01   4.0186E+02  0.000E+00  0.000E+00  0.000E+00  1.98601E+03  6.025E-03  3.000E+00  1.350E+03  0.000E+00  0.000E+00
   1   48   72    17     8    4.0186E+02 -1.2299E+02   5.2485E+02  0.000E+00  0.000E+00  0.000E+00  1.97901E+03  7.004E-03  3.000E+00  1.350E+03  0.000E+00  0.000E+00
   1   47   72    17     9    5.2485E+02 -1.8744E+02   7.1229E+02  0.000E+00  0.000E+00  0.000E+00  1.97201E+03  8.517E-03  3.000E+00  1.350E+03  0.000E+00  0.000E+00
   1   46   72    17    10    7.1229E+02 -1.9708E+01   7.3199E+02  0.000E+00  0.000E+00  0.000E+00  1.96601E+03  9.574E-03  3.000E+00  1.350E+03  0.000E+00  0.000E+00
   1   45   72    17    11    7.3199E+02 -6.4785E+00   7.3847E+02  0.000E+00  0.000E+00  0.000E+00  1.96001E+03  9.776E-03  3.000E+00  1.630E+03  0.000E+00  0.000E+00
   1   44   73    17    12    7.3847E+02 -2.0665E+01   7.5914E+02  0.000E+00  0.000E+00  0.000E+00  1.95201E+03  1.011E-02  3.000E+00  1.630E+03  0.000E+00  0.000E+00
   1   43   73    17    13    7.5914E+02 -4.1242E+01   8.0038E+02  0.000E+00  0.000E+00  0.000E+00  1.94701E+03  1.132E-02  3.000E+00  1.350E+03  0.000E+00  0.000E+00
   1   42   73    17    14    8.0038E+02 -5.3374E+00   8.0572E+02  0.000E+00  0.000E+00  0.000E+00  1.94401E+03  1.177E-02  3.000E+00  1.630E+03  0.000E+00  0.000E+00
   1   41   74    17    15    8.0572E+02 -4.3586E+01   8.4930E+02  0.000E+00  0.000E+00  0.000E+00  1.93801E+03  1.217E-02  3.000E+00  1.909E+03  0.000E+00  0.000E+00
   1   40   75    17    16    8.4930E+02 -4.0826E+01   8.9013E+02  0.000E+00  0.000E+00  0.000E+00  1.93401E+03  1.254E-02  3.000E+00  9.546E+02  0.000E+00  0.000E+00
   1   37   55    18     1    0.0000E+00  0.0000E+00   0.0000E+00  0.000E+00  0.000E+00  0.000E+00  2.00700E+03  0.000E+00  3.000E+00  1.630E+03  0.000E+00  0.000E+00
   1   36   54    19     1    0.0000E+00  0.0000E+00   0.0000E+00  0.000E+00  0.000E+00  0.000E+00  2.00700E+03  0.000E+00  3.000E+00  1.630E+03  0.000E+00  0.000E+00



1
  VOLUMETRIC BUDGET FOR UNSATURATED ZONE BENEATH STREAMS AT END OF TIME STEP     1 STRESS PERIOD   9
  ------------------------------------------------------------------------------------------------

    CUMULATIVE VOLUMES             L**3    RATES FOR THIS TIME STEP         L**3/T
    ------------------                     ------------------------


          STREAM LOSS =       223475.1250            STREAM LOSS =          978.7936
    CHANGE IN STORAGE =            0.8264      CHANGE IN STORAGE =            4.6864
       RECHARGE TO GW =       223473.0469         RECHARGE TO GW =          974.1072

             TOTAL IN =       223475.1250               TOTAL IN =          978.7936

            TOTAL OUT =       223473.8750              TOTAL OUT =          978.7937

             IN - OUT =            1.2500               IN - OUT =       -1.2207E-04

  PERCENT DISCREPANCY =            0.00      PERCENT DISCREPANCY =            -0.00



 ***WARNING***NUZTOP IS 3 AND ALL LAYERS  IN ROW           39  AND COLUMN           76  ARE INACTIVE.
 UNSATURATED FLOW WILL NOT BE ADDED TO ANY LAYER-- SOME WATER MAY FLOW PAST LOWEST LAYER
 ***WARNING***NUZTOP IS 3 AND ALL LAYERS  IN ROW           40  AND COLUMN           76  ARE INACTIVE.
 UNSATURATED FLOW WILL NOT BE ADDED TO ANY LAYER-- SOME WATER MAY FLOW PAST LOWEST LAYER


UNSATURATED ZONE PACKAGE VOLUMETRIC BUDGET FOR  TIME STEP     1 STRESS PERIOD    9
  ------------------------------------------------------------------------------



     CUMULATIVE VOLUMES      L**3       RATES FOR THIS TIME STEP      L**3/T
     ------------------                 ------------------------

           IN:                                      IN:
           ---                                      ---
        INFILTRATION =       26653.0419          INFILTRATION =       0.0000E+00

          OUT:                                     OUT:
          ----                                     ----
              UZF ET =      658120.3756                UZF ET =           0.0000
        UZF RECHARGE =     3003210.4289          UZF RECHARGE =        6603.2245

            IN - OUT =    -3634677.7626              IN - OUT =       -6603.2245

          STORAGE:                                 STORAGE:
          --------                                 --------
      STORAGE CHANGE =    -3632697.0661        STORAGE CHANGE =       -6603.2245

 PERCENT DISCREPANCY IS DIFFERENCE BETWEEN IN-OUT MINUS CHANGE IN STORAGE
 DIVIDED BY THE AVERAGE OF IN AND OUT TIMES 100

 PERCENT DISCREPANCY =          -0.01     PERCENT DISCREPANCY =           0.00








        GW IRRIGATION     PERIOD    9   STEP   1

1
  VOLUMETRIC BUDGET FOR AGRICULTURAL FIELDS AT  END OF TIME STEP    1, STRESS PERIOD   9
  ------------------------------------------------------------------------------

     CUMULATIVE VOLUMES      L**3       RATES FOR THIS TIME STEP      L**3/T
     ------------------                 ------------------------

           IN:                                      IN:
           ---                                      ---
               AG WELLS  =           0.0000                 AG WELLS  =          -0.0000
      DIVERSION SEGMENTS =           0.0000        DIVERSION SEGMENTS =           0.0000
       IRRIGATION PONDS  =           0.0000         IRRIGATION PONDS  =           0.0000
           GW IRRIGATION =           0.0000             GW IRRIGATION =           0.0000
           SW IRRIGATION =           0.0000             SW IRRIGATION =           0.0000
        SYSTEM LOSSES GW =           0.0000          SYSTEM LOSSES GW =           0.0000
        SYSTEM LOSSES SW =           0.0000          SYSTEM LOSSES SW =          -0.0000

                TOTAL IN =           0.0000                  TOTAL IN =           0.0000

          OUT:                                     OUT:
          ----                                     ----
               AG WELLS  =           0.0000                 AG WELLS  =           0.0000
      DIVERSION SEGMENTS =           0.0000        DIVERSION SEGMENTS =           0.0000
       IRRIGATION PONDS  =           0.0000         IRRIGATION PONDS  =           0.0000
           GW IRRIGATION =           0.0000             GW IRRIGATION =           0.0000
           SW IRRIGATION =           0.0000             SW IRRIGATION =           0.0000
        SYSTEM LOSSES GW =           0.0000          SYSTEM LOSSES GW =           0.0000
        SYSTEM LOSSES SW =           0.0000          SYSTEM LOSSES SW =           0.0000

               TOTAL OUT =           0.0000                 TOTAL OUT =           0.0000

                IN - OUT =           0.0000                  IN - OUT =           0.0000

     PERCENT DISCREPANCY =           0.00         PERCENT DISCREPANCY =           0.00




 HEAD WILL BE SAVED ON UNIT   58 AT END OF TIME STEP    1, STRESS PERIOD    9
1
  VOLUMETRIC BUDGET FOR ENTIRE MODEL AT END OF TIME STEP    1, STRESS PERIOD   9
  ------------------------------------------------------------------------------

     CUMULATIVE VOLUMES      L**3       RATES FOR THIS TIME STEP      L**3/T
     ------------------                 ------------------------

           IN:                                      IN:
           ---                                      ---
             STORAGE     =     1122708.7500               STORAGE     =        9439.0391
       CONSTANT HEAD     =          97.9473         CONSTANT HEAD     =           1.3210
      STREAM LEAKAGE     =      562904.7500        STREAM LEAKAGE     =        2726.0557
        UZF RECHARGE     =     3003225.7500          UZF RECHARGE     =        6603.2271
               GW ET     =           0.0000                 GW ET     =           0.0000
     SURFACE LEAKAGE     =           0.0000       SURFACE LEAKAGE     =           0.0000
           AG WELLS      =           0.0000             AG WELLS      =           0.0000

                TOTAL IN =     4688937.0000                  TOTAL IN =       18769.6426

          OUT:                                     OUT:
          ----                                     ----
             STORAGE     =     1143803.6250               STORAGE     =        2232.1919
       CONSTANT HEAD     =        7569.2217         CONSTANT HEAD     =          33.7842
      STREAM LEAKAGE     =     2741384.5000        STREAM LEAKAGE     =       12951.0088
        UZF RECHARGE     =           0.0000          UZF RECHARGE     =           0.0000
               GW ET     =      768444.6250                 GW ET     =        3409.5376
     SURFACE LEAKAGE     =       28526.5410       SURFACE LEAKAGE     =         145.6063
           AG WELLS      =           0.0000             AG WELLS      =           0.0000

               TOTAL OUT =     4689728.5000                 TOTAL OUT =       18772.1270

                IN - OUT =        -791.5000                  IN - OUT =          -2.4844

     PERCENT DISCREPANCY =          -0.02         PERCENT DISCREPANCY =          -0.01






         TIME SUMMARY AT END OF TIME STEP    1 IN STRESS PERIOD    9
                    SECONDS     MINUTES      HOURS       DAYS        YEARS
                    -----------------------------------------------------------
   TIME STEP LENGTH  86400.      1440.0      24.000      1.0000     2.73785E-03
 STRESS PERIOD TIME  86400.      1440.0      24.000      1.0000     2.73785E-03
         TOTAL TIME 1.84896E+07 3.08160E+05  5136.0      214.00     0.58590    
1
                                                   Max.-Head-Change                         Max.-Flux-Residual
  Residual-Control   Outer-Iter.   Inner-Iter.     Column Row Layer    Maximum-Head-Change  Column Row Layer    Maximum-Flux-Residual          L2-NORM 
          0                 1           6            52   56     1       0.1540833003E+01      47   22    1         0.2412558709E+02      0.2447271646E+03
          0                 2           4            47   22     1       0.1774624572E+01      47   22    1         0.2862585220E+02      0.7685813296E+02
          0                 3           2            61   34     2       0.9312827427E-02      64   38    1         0.1140023018E+02      0.2505027092E+02
          0                 4           2            63   38     1       0.7602334482E-02      63   38    1         0.1073835356E+02      0.1727058053E+02
          0                 5           2            64   38     1       0.3396095710E-02      64   38    1         0.4810994199E+01      0.6981289817E+01
          0                 6           1            64   38     1       0.9698779754E-03      64   38    1         0.1378751748E+01      0.2361393454E+01

    ------------------------------------------------
       NWT REQUIRED            6 OUTER ITERATIONS 
       AND A TOTAL OF         17 INNER ITERATIONS.
    ------------------------------------------------

 NO OUTPUT CONTROL FOR STRESS PERIOD    9   TIME STEP    2
 ***WARNING***NUZTOP IS 3 AND ALL LAYERS  IN ROW           39  AND COLUMN           76  ARE INACTIVE.
 UNSATURATED FLOW WILL NOT BE ADDED TO ANY LAYER-- SOME WATER MAY FLOW PAST LOWEST LAYER
 ***WARNING***NUZTOP IS 3 AND ALL LAYERS  IN ROW           40  AND COLUMN           76  ARE INACTIVE.
 UNSATURATED FLOW WILL NOT BE ADDED TO ANY LAYER-- SOME WATER MAY FLOW PAST LOWEST LAYER
                                                   Max.-Head-Change                         Max.-Flux-Residual
  Residual-Control   Outer-Iter.   Inner-Iter.     Column Row Layer    Maximum-Head-Change  Column Row Layer    Maximum-Flux-Residual          L2-NORM 
          0                 1           6            48   22     1      -0.1442362514E+01      46   42    1         0.2221433923E+02      0.2485139540E+03
          0                 2           4            68   47     1       0.3595725532E+00      63   38    1        -0.5813922756E+02      0.1057955169E+03
          0                 3           3            64   38     1      -0.2780532457E-01      64   38    1        -0.3923623085E+02      0.6071426327E+02
          0                 4           3            64   38     1      -0.2070984165E-01      64   38    1        -0.2921599761E+02      0.4185263177E+02
          0                 5           2            64   38     1      -0.8280481832E-02      64   38    1        -0.1174101532E+02      0.1485996316E+02
          0                 6           2            64   38     1      -0.2222714950E-02      64   38    1        -0.3160841834E+01      0.4081367023E+01
          0                 7           1            64   38     1      -0.4702802098E-03      64   38    1        -0.6699645544E+00      0.1197815542E+01

    ------------------------------------------------
       NWT REQUIRED            7 OUTER ITERATIONS 
       AND A TOTAL OF         21 INNER ITERATIONS.
    ------------------------------------------------

 NO OUTPUT CONTROL FOR STRESS PERIOD    9   TIME STEP    3
 ***WARNING***NUZTOP IS 3 AND ALL LAYERS  IN ROW           39  AND COLUMN           76  ARE INACTIVE.
 UNSATURATED FLOW WILL NOT BE ADDED TO ANY LAYER-- SOME WATER MAY FLOW PAST LOWEST LAYER
 ***WARNING***NUZTOP IS 3 AND ALL LAYERS  IN ROW           40  AND COLUMN           76  ARE INACTIVE.
 UNSATURATED FLOW WILL NOT BE ADDED TO ANY LAYER-- SOME WATER MAY FLOW PAST LOWEST LAYER
                                                   Max.-Head-Change                         Max.-Flux-Residual
  Residual-Control   Outer-Iter.   Inner-Iter.     Column Row Layer    Maximum-Head-Change  Column Row Layer    Maximum-Flux-Residual          L2-NORM 
          0                 1           6            68   48     1      -0.2953792861E+01      58   10    1        -0.2059008827E+02      0.3715013710E+03
          0                 2           5            68   47     1       0.2144851259E+01      68   47    1         0.1640256831E+04      0.4339561868E+04
          0                 3           4            43   30     1       0.1710501099E+00      63   38    1        -0.6396839583E+02      0.2070419368E+03
          0                 4           3            66   49     1       0.2920910040E+00      63   38    1        -0.7833551381E+02      0.1102111887E+03
          0                 5           3            64   38     1      -0.2520282367E-01      64   38    1        -0.3570279464E+02      0.4445545595E+02
          0                 6           2            64   38     1      -0.7561542981E-02      64   38    1        -0.1074806149E+02      0.1244270959E+02
          0                 7           2            64   38     1      -0.1740960959E-02      64   38    1        -0.2479601137E+01      0.2904516699E+01
          0                 8           1            64   38     1      -0.3384741460E-03      64   38    1        -0.4826526450E+00      0.7245893228E+00

    ------------------------------------------------
       NWT REQUIRED            8 OUTER ITERATIONS 
       AND A TOTAL OF         26 INNER ITERATIONS.
    ------------------------------------------------

 NO OUTPUT CONTROL FOR STRESS PERIOD    9   TIME STEP    4
 ***WARNING***NUZTOP IS 3 AND ALL LAYERS  IN ROW           39  AND COLUMN           76  ARE INACTIVE.
 UNSATURATED FLOW WILL NOT BE ADDED TO ANY LAYER-- SOME WATER MAY FLOW PAST LOWEST LAYER
 ***WARNING***NUZTOP IS 3 AND ALL LAYERS  IN ROW           40  AND COLUMN           76  ARE INACTIVE.
 UNSATURATED FLOW WILL NOT BE ADDED TO ANY LAYER-- SOME WATER MAY FLOW PAST LOWEST LAYER
                                                   Max.-Head-Change                         Max.-Flux-Residual
  Residual-Control   Outer-Iter.   Inner-Iter.     Column Row Layer    Maximum-Head-Change  Column Row Layer    Maximum-Flux-Residual          L2-NORM 
          0                 1           5            52   57     1      -0.1129845927E+01      46   42    1        -0.6431116953E+02      0.4311778763E+03
          0                 2           4            68   53     1       0.6282662790E+00      68   53    1         0.5025316018E+03      0.1254184420E+04
          0                 3           3            25   32     1       0.4387310587E-01      68   53    1         0.3053717432E+02      0.8207496607E+02
          0                 4           3            63   38     1      -0.2352372813E-01      63   38    1        -0.3325081009E+02      0.4793769940E+02
          0                 5           2            64   38     1      -0.1114702787E-01      64   38    1        -0.1578716302E+02      0.2032805627E+02
          0                 6           2            64   38     1      -0.3474484563E-02      64   38    1        -0.4938026870E+01      0.6101321355E+01
          0                 7           1            64   38     1      -0.8277691134E-03      64   38    1        -0.1179036707E+01      0.1678986437E+01

    ------------------------------------------------
       NWT REQUIRED            7 OUTER ITERATIONS 
       AND A TOTAL OF         20 INNER ITERATIONS.
    ------------------------------------------------

 NO OUTPUT CONTROL FOR STRESS PERIOD    9   TIME STEP    5
 ***WARNING***NUZTOP IS 3 AND ALL LAYERS  IN ROW           39  AND COLUMN           76  ARE INACTIVE.
 UNSATURATED FLOW WILL NOT BE ADDED TO ANY LAYER-- SOME WATER MAY FLOW PAST LOWEST LAYER
 ***WARNING***NUZTOP IS 3 AND ALL LAYERS  IN ROW           40  AND COLUMN           76  ARE INACTIVE.
 UNSATURATED FLOW WILL NOT BE ADDED TO ANY LAYER-- SOME WATER MAY FLOW PAST LOWEST LAYER
                                                   Max.-Head-Change                         Max.-Flux-Residual
  Residual-Control   Outer-Iter.   Inner-Iter.     Column Row Layer    Maximum-Head-Change  Column Row Layer    Maximum-Flux-Residual          L2-NORM 
          0                 1           3            25   33     2      -0.4187388899E+00      46   42    1        -0.7487389915E+02      0.4391764860E+03
          0                 2           3            52   57     1      -0.4639837288E-01      63   38    1         0.6775687581E+01      0.4791505857E+02
          0                 3           2            68   52     1       0.3580744927E-02      64   38    1         0.4209642343E+01      0.1928210524E+02
          0                 4           2             4   50     1      -0.1687665809E-02      64   38    1         0.2257061903E+01      0.8345022983E+01
          0                 5           1             3   54     1      -0.8807186132E-03      69   29    1         0.6564832658E+00      0.3636616146E+01

    ------------------------------------------------
       NWT REQUIRED            5 OUTER ITERATIONS 
       AND A TOTAL OF         11 INNER ITERATIONS.
    ------------------------------------------------

 NO OUTPUT CONTROL FOR STRESS PERIOD    9   TIME STEP    6
 ***WARNING***NUZTOP IS 3 AND ALL LAYERS  IN ROW           39  AND COLUMN           76  ARE INACTIVE.
 UNSATURATED FLOW WILL NOT BE ADDED TO ANY LAYER-- SOME WATER MAY FLOW PAST LOWEST LAYER
 ***WARNING***NUZTOP IS 3 AND ALL LAYERS  IN ROW           40  AND COLUMN           76  ARE INACTIVE.
 UNSATURATED FLOW WILL NOT BE ADDED TO ANY LAYER-- SOME WATER MAY FLOW PAST LOWEST LAYER
                                                   Max.-Head-Change                         Max.-Flux-Residual
  Residual-Control   Outer-Iter.   Inner-Iter.     Column Row Layer    Maximum-Head-Change  Column Row Layer    Maximum-Flux-Residual          L2-NORM 
          0                 1           5            52   57     1      -0.5762538619E+00      46   42    1        -0.7176775991E+02      0.4752714713E+03
          0                 2           4            30   27     1       0.3079653196E+00      70   48    1         0.2799793597E+03      0.6080088198E+03
          0                 3           3            64   38     1      -0.1580746607E-01      64   38    1        -0.2227101929E+02      0.4520126490E+02
          0                 4           3            63   38     1      -0.1795238395E-01      63   38    1        -0.2536869125E+02      0.3675039890E+02
          0                 5           2            64   38     1      -0.8707565987E-02      64   38    1        -0.1233123054E+02      0.1592355093E+02
          0                 6           2            64   38     1      -0.2772774463E-02      64   38    1        -0.3940371784E+01      0.4913780356E+01
          0                 7           1            64   38     1      -0.6746602671E-03      64   38    1        -0.9609095177E+00      0.1418208049E+01

    ------------------------------------------------
       NWT REQUIRED            7 OUTER ITERATIONS 
       AND A TOTAL OF         20 INNER ITERATIONS.
    ------------------------------------------------

 NO OUTPUT CONTROL FOR STRESS PERIOD    9   TIME STEP    7
 ***WARNING***NUZTOP IS 3 AND ALL LAYERS  IN ROW           39  AND COLUMN           76  ARE INACTIVE.
 UNSATURATED FLOW WILL NOT BE ADDED TO ANY LAYER-- SOME WATER MAY FLOW PAST LOWEST LAYER
 ***WARNING***NUZTOP IS 3 AND ALL LAYERS  IN ROW           40  AND COLUMN           76  ARE INACTIVE.
 UNSATURATED FLOW WILL NOT BE ADDED TO ANY LAYER-- SOME WATER MAY FLOW PAST LOWEST LAYER
                                                   Max.-Head-Change                         Max.-Flux-Residual
  Residual-Control   Outer-Iter.   Inner-Iter.     Column Row Layer    Maximum-Head-Change  Column Row Layer    Maximum-Flux-Residual          L2-NORM 
          0                 1           5            48   22     1      -0.4862400880E+00      46   42    1        -0.6838259279E+02      0.5180003310E+03
          0                 2           3            48   21     1       0.1681570610E+00      57    8    1         0.1698060326E+03      0.3117529507E+03
          0                 3           3            64   38     1      -0.1167536432E-01      64   38    1        -0.1645228039E+02      0.3288415607E+02
          0                 4           3            63   38     1      -0.1275825957E-01      63   38    1        -0.1802604588E+02      0.2675191593E+02
          0                 5           2            64   38     1      -0.6365500074E-02      64   38    1        -0.9012846118E+01      0.1193396348E+02
          0                 6           2            64   38     1      -0.2084945884E-02      64   38    1        -0.2962416635E+01      0.3877544698E+01
          0                 7           1            64   38     1      -0.5211858140E-03      64   38    1        -0.7422283924E+00      0.1226768101E+01

    ------------------------------------------------
       NWT REQUIRED            7 OUTER ITERATIONS 
       AND A TOTAL OF         19 INNER ITERATIONS.
    ------------------------------------------------

 NO OUTPUT CONTROL FOR STRESS PERIOD    9   TIME STEP    8
 ***WARNING***NUZTOP IS 3 AND ALL LAYERS  IN ROW           39  AND COLUMN           76  ARE INACTIVE.
 UNSATURATED FLOW WILL NOT BE ADDED TO ANY LAYER-- SOME WATER MAY FLOW PAST LOWEST LAYER
 ***WARNING***NUZTOP IS 3 AND ALL LAYERS  IN ROW           40  AND COLUMN           76  ARE INACTIVE.
 UNSATURATED FLOW WILL NOT BE ADDED TO ANY LAYER-- SOME WATER MAY FLOW PAST LOWEST LAYER
                                                   Max.-Head-Change                         Max.-Flux-Residual
  Residual-Control   Outer-Iter.   Inner-Iter.     Column Row Layer    Maximum-Head-Change  Column Row Layer    Maximum-Flux-Residual          L2-NORM 
          0                 1           5            52   57     1       0.4181513369E+01      46   42    1        -0.4671896304E+02      0.5543246339E+03
          0                 2           6            67   40     1       0.1108177464E+02      63   38    1         0.1911551607E+03      0.3338893988E+03
          0                 3           4            67   40     1      -0.4754732429E+01      67   40    1        -0.6164454966E+04      0.6169353617E+04
          0                 4           4            67   40     1      -0.1132581818E+01      67   40    1        -0.1455072850E+04      0.1473623824E+04
          0                 5           3            67   40     1      -0.2787857343E+00      67   40    1        -0.3576502920E+03      0.3683271173E+03
          0                 6           3            67   40     1      -0.6847339968E-01      67   40    1        -0.8781059886E+02      0.9047012798E+02
          0                 7           3            67   40     1      -0.1680905486E-01      67   40    1        -0.2155377051E+02      0.2205443703E+02
          0                 8           2            67   40     1      -0.4125686750E-02      67   40    1        -0.5290086946E+01      0.5384215664E+01
          0                 9           2            67   40     1      -0.1012594454E-02      67   40    1        -0.1298328743E+01      0.1333730338E+01
          0                10           1            67   40     1      -0.2484988586E-03      67   40    1        -0.3186422208E+00      0.3465522771E+00

    ------------------------------------------------
       NWT REQUIRED           10 OUTER ITERATIONS 
       AND A TOTAL OF         33 INNER ITERATIONS.
    ------------------------------------------------

 NO OUTPUT CONTROL FOR STRESS PERIOD    9   TIME STEP    9
 ***WARNING***NUZTOP IS 3 AND ALL LAYERS  IN ROW           39  AND COLUMN           76  ARE INACTIVE.
 UNSATURATED FLOW WILL NOT BE ADDED TO ANY LAYER-- SOME WATER MAY FLOW PAST LOWEST LAYER
 ***WARNING***NUZTOP IS 3 AND ALL LAYERS  IN ROW           40  AND COLUMN           76  ARE INACTIVE.
 UNSATURATED FLOW WILL NOT BE ADDED TO ANY LAYER-- SOME WATER MAY FLOW PAST LOWEST LAYER
                                                   Max.-Head-Change                         Max.-Flux-Residual
  Residual-Control   Outer-Iter.   Inner-Iter.     Column Row Layer    Maximum-Head-Change  Column Row Layer    Maximum-Flux-Residual          L2-NORM 
          0                 1           5            67   52     1       0.2082580492E+01      69   29    1         0.9363068189E+02      0.3569050385E+03
          0                 2           5            70   63     1       0.1782000700E+01      46   42    1         0.5703986388E+02      0.1113383599E+03
          0                 3           3            63   38     1       0.1603544954E-01      63   38    1         0.2265134941E+02      0.3831026259E+02
          0                 4           3            63   38     1       0.2061722938E-01      63   38    1         0.2914485745E+02      0.4137540548E+02
          0                 5           2            64   38     1       0.8897389598E-02      64   38    1         0.1260559885E+02      0.1596846743E+02
          0                 6           2            64   38     1       0.2500076544E-02      64   38    1         0.3553728747E+01      0.4412285108E+01
          0                 7           1            64   38     1       0.5385863888E-03      64   38    1         0.7671377128E+00      0.1219772027E+01

    ------------------------------------------------
       NWT REQUIRED            7 OUTER ITERATIONS 
       AND A TOTAL OF         21 INNER ITERATIONS.
    ------------------------------------------------

 NO OUTPUT CONTROL FOR STRESS PERIOD    9   TIME STEP   10
 ***WARNING***NUZTOP IS 3 AND ALL LAYERS  IN ROW           39  AND COLUMN           76  ARE INACTIVE.
 UNSATURATED FLOW WILL NOT BE ADDED TO ANY LAYER-- SOME WATER MAY FLOW PAST LOWEST LAYER
 ***WARNING***NUZTOP IS 3 AND ALL LAYERS  IN ROW           40  AND COLUMN           76  ARE INACTIVE.
 UNSATURATED FLOW WILL NOT BE ADDED TO ANY LAYER-- SOME WATER MAY FLOW PAST LOWEST LAYER
                                                   Max.-Head-Change                         Max.-Flux-Residual
  Residual-Control   Outer-Iter.   Inner-Iter.     Column Row Layer    Maximum-Head-Change  Column Row Layer    Maximum-Flux-Residual          L2-NORM 
          0                 1           5            68   53     1       0.1844129156E+01      39   60    1         0.4839940303E+02      0.3021724604E+03
          0                 2           5            67   19     1       0.1335189947E+01      67   19    1         0.4089547264E+02      0.7628222074E+02
          0                 3           3            68   19     1       0.1539884303E-01      64   38    1        -0.6380531050E+01      0.2005715092E+02
          0                 4           2            64   38     1      -0.3171588337E-02      64   38    1        -0.4475479151E+01      0.9823433909E+01
          0                 5           2            64   38     1      -0.1227355519E-02      64   38    1        -0.1739762015E+01      0.4103432473E+01
          0                 6           1             3   54     1      -0.4564725759E-03      64   38    1        -0.4732382809E+00      0.1793089362E+01

    ------------------------------------------------
       NWT REQUIRED            6 OUTER ITERATIONS 
       AND A TOTAL OF         18 INNER ITERATIONS.
    ------------------------------------------------

 NO OUTPUT CONTROL FOR STRESS PERIOD    9   TIME STEP   11
 ***WARNING***NUZTOP IS 3 AND ALL LAYERS  IN ROW           39  AND COLUMN           76  ARE INACTIVE.
 UNSATURATED FLOW WILL NOT BE ADDED TO ANY LAYER-- SOME WATER MAY FLOW PAST LOWEST LAYER
 ***WARNING***NUZTOP IS 3 AND ALL LAYERS  IN ROW           40  AND COLUMN           76  ARE INACTIVE.
 UNSATURATED FLOW WILL NOT BE ADDED TO ANY LAYER-- SOME WATER MAY FLOW PAST LOWEST LAYER
                                                   Max.-Head-Change                         Max.-Flux-Residual
  Residual-Control   Outer-Iter.   Inner-Iter.     Column Row Layer    Maximum-Head-Change  Column Row Layer    Maximum-Flux-Residual          L2-NORM 
          0                 1           6            48   22     1      -0.2584430122E+01      39   60    1         0.4115687004E+02      0.3894518173E+03
          0                 2           3            62   30     1       0.1344073346E+00      28   34    1         0.1599053504E+03      0.2996321300E+03
          0                 3           3            64   38     1      -0.6335306432E-01      64   38    1        -0.8931980940E+02      0.1338758058E+03
          0                 4           3            62   30     1       0.3113173655E+00      63   38    1        -0.8946074712E+02      0.1277841035E+03
          0                 5           3            64   38     1      -0.2785376050E-01      64   38    1        -0.3947489755E+02      0.4868554534E+02
          0                 6           2            64   38     1      -0.7890592174E-02      64   38    1        -0.1122050306E+02      0.1292271594E+02
          0                 7           2            64   38     1      -0.1722199557E-02      64   38    1        -0.2453525171E+01      0.2913271722E+01
          0                 8           1            64   38     1      -0.3193270043E-03      64   38    1        -0.4553351766E+00      0.7317773509E+00

    ------------------------------------------------
       NWT REQUIRED            8 OUTER ITERATIONS 
       AND A TOTAL OF         23 INNER ITERATIONS.
    ------------------------------------------------

 NO OUTPUT CONTROL FOR STRESS PERIOD    9   TIME STEP   12
 ***WARNING***NUZTOP IS 3 AND ALL LAYERS  IN ROW           39  AND COLUMN           76  ARE INACTIVE.
 UNSATURATED FLOW WILL NOT BE ADDED TO ANY LAYER-- SOME WATER MAY FLOW PAST LOWEST LAYER
 ***WARNING***NUZTOP IS 3 AND ALL LAYERS  IN ROW           40  AND COLUMN           76  ARE INACTIVE.
 UNSATURATED FLOW WILL NOT BE ADDED TO ANY LAYER-- SOME WATER MAY FLOW PAST LOWEST LAYER
                                                   Max.-Head-Change                         Max.-Flux-Residual
  Residual-Control   Outer-Iter.   Inner-Iter.     Column Row Layer    Maximum-Head-Change  Column Row Layer    Maximum-Flux-Residual          L2-NORM 
          0                 1           5            48   23     2      -0.8851285455E+00      46   42    1        -0.3755395095E+02      0.3268775220E+03
          0                 2           4            67   19     1       0.2456803035E+00      67   19    1         0.3188747885E+03      0.4351952678E+03
          0                 3           2            64   38     1      -0.1028133311E-01      64   38    1        -0.1449943323E+02      0.3401848441E+02
          0                 4           2            64   38     1      -0.8881128221E-02      64   38    1        -0.1251881432E+02      0.2020190229E+02
          0                 5           2            64   38     1      -0.4001712285E-02      64   38    1        -0.5670426599E+01      0.8191195693E+01
          0                 6           2            64   38     1      -0.1184654982E-02      64   38    1        -0.1684026811E+01      0.2756770869E+01
          0                 7           1            64   38     1      -0.2724930155E-03      64   38    1        -0.3881676521E+00      0.1038537273E+01

    ------------------------------------------------
       NWT REQUIRED            7 OUTER ITERATIONS 
       AND A TOTAL OF         18 INNER ITERATIONS.
    ------------------------------------------------

 NO OUTPUT CONTROL FOR STRESS PERIOD    9   TIME STEP   13
 ***WARNING***NUZTOP IS 3 AND ALL LAYERS  IN ROW           39  AND COLUMN           76  ARE INACTIVE.
 UNSATURATED FLOW WILL NOT BE ADDED TO ANY LAYER-- SOME WATER MAY FLOW PAST LOWEST LAYER
 ***WARNING***NUZTOP IS 3 AND ALL LAYERS  IN ROW           40  AND COLUMN           76  ARE INACTIVE.
 UNSATURATED FLOW WILL NOT BE ADDED TO ANY LAYER-- SOME WATER MAY FLOW PAST LOWEST LAYER
                                                   Max.-Head-Change                         Max.-Flux-Residual
  Residual-Control   Outer-Iter.   Inner-Iter.     Column Row Layer    Maximum-Head-Change  Column Row Layer    Maximum-Flux-Residual          L2-NORM 
          0                 1           5            48   22     2      -0.2770830066E+00      46   42    1        -0.4574851761E+02      0.3206294439E+03
          0                 2           3            43   30     1       0.1084986907E+00      63   38    1         0.1384556491E+02      0.5146038891E+02
          0                 3           2            64   38     1       0.6780143713E-02      64   38    1         0.9571096279E+01      0.2344860104E+02
          0                 4           2            64   38     1       0.4640792153E-02      64   38    1         0.6551269805E+01      0.1229776831E+02
          0                 5           2            64   38     1       0.1646352347E-02      64   38    1         0.2337516316E+01      0.4718922134E+01
          0                 6           1             3   54     1      -0.4541379863E-03      64   38    1         0.5551077383E+00      0.1922441416E+01

    ------------------------------------------------
       NWT REQUIRED            6 OUTER ITERATIONS 
       AND A TOTAL OF         15 INNER ITERATIONS.
    ------------------------------------------------

 NO OUTPUT CONTROL FOR STRESS PERIOD    9   TIME STEP   14
 ***WARNING***NUZTOP IS 3 AND ALL LAYERS  IN ROW           39  AND COLUMN           76  ARE INACTIVE.
 UNSATURATED FLOW WILL NOT BE ADDED TO ANY LAYER-- SOME WATER MAY FLOW PAST LOWEST LAYER
 ***WARNING***NUZTOP IS 3 AND ALL LAYERS  IN ROW           40  AND COLUMN           76  ARE INACTIVE.
 UNSATURATED FLOW WILL NOT BE ADDED TO ANY LAYER-- SOME WATER MAY FLOW PAST LOWEST LAYER
                                                   Max.-Head-Change                         Max.-Flux-Residual
  Residual-Control   Outer-Iter.   Inner-Iter.     Column Row Layer    Maximum-Head-Change  Column Row Layer    Maximum-Flux-Residual          L2-NORM 
          0                 1           6             5   59     1      -0.2480180671E+01      46   42    1        -0.4521994498E+02      0.4691437043E+03
          0                 2           5             3   57     1       0.1150903669E+01       3   57    1         0.8241239950E+03      0.2807614243E+04
          0                 3           4            67   53     1       0.1443414593E+00      63   38    1        -0.6136533810E+02      0.1826569824E+03
          0                 4           3            63   38     1      -0.5377333809E-01      63   38    1        -0.7601595898E+02      0.1072477348E+03
          0                 5           3            64   38     1      -0.2569089072E-01      64   38    1        -0.3638587264E+02      0.4594901936E+02
          0                 6           2            64   38     1      -0.8135261935E-02      64   38    1        -0.1156231835E+02      0.1363795663E+02
          0                 7           2            64   38     1      -0.1967488562E-02      64   38    1        -0.2802224738E+01      0.3418525602E+01
          0                 8           1            64   38     1      -0.4000453894E-03      64   38    1        -0.5705192183E+00      0.9190041437E+00

    ------------------------------------------------
       NWT REQUIRED            8 OUTER ITERATIONS 
       AND A TOTAL OF         26 INNER ITERATIONS.
    ------------------------------------------------

 NO OUTPUT CONTROL FOR STRESS PERIOD    9   TIME STEP   15
 ***WARNING***NUZTOP IS 3 AND ALL LAYERS  IN ROW           39  AND COLUMN           76  ARE INACTIVE.
 UNSATURATED FLOW WILL NOT BE ADDED TO ANY LAYER-- SOME WATER MAY FLOW PAST LOWEST LAYER
 ***WARNING***NUZTOP IS 3 AND ALL LAYERS  IN ROW           40  AND COLUMN           76  ARE INACTIVE.
 UNSATURATED FLOW WILL NOT BE ADDED TO ANY LAYER-- SOME WATER MAY FLOW PAST LOWEST LAYER
                                                   Max.-Head-Change                         Max.-Flux-Residual
  Residual-Control   Outer-Iter.   Inner-Iter.     Column Row Layer    Maximum-Head-Change  Column Row Layer    Maximum-Flux-Residual          L2-NORM 
          0                 1           4            48   22     2      -0.5792263473E+00      69   29    1        -0.5110945013E+02      0.5012479031E+03
          0                 2           3            48   21     1       0.2264924851E+00      48   21    1         0.1762679258E+03      0.2062709921E+03
          0                 3           3            48   22     1       0.2633185801E-01      63   38    1        -0.8861660302E+01      0.2343984427E+02
          0                 4           2            63   38     1      -0.7599342895E-02      63   38    1        -0.1073959669E+02      0.1684458544E+02
          0                 5           2            64   38     1      -0.3875264628E-02      64   38    1        -0.5485455970E+01      0.7791535777E+01
          0                 6           2            64   38     1      -0.1301934183E-02      64   38    1        -0.1849506938E+01      0.2756945167E+01
          0                 7           1            64   38     1      -0.3320059061E-03      64   38    1        -0.4727551408E+00      0.1020685517E+01

    ------------------------------------------------
       NWT REQUIRED            7 OUTER ITERATIONS 
       AND A TOTAL OF         17 INNER ITERATIONS.
    ------------------------------------------------

 NO OUTPUT CONTROL FOR STRESS PERIOD    9   TIME STEP   16
 ***WARNING***NUZTOP IS 3 AND ALL LAYERS  IN ROW           39  AND COLUMN           76  ARE INACTIVE.
 UNSATURATED FLOW WILL NOT BE ADDED TO ANY LAYER-- SOME WATER MAY FLOW PAST LOWEST LAYER
 ***WARNING***NUZTOP IS 3 AND ALL LAYERS  IN ROW           40  AND COLUMN           76  ARE INACTIVE.
 UNSATURATED FLOW WILL NOT BE ADDED TO ANY LAYER-- SOME WATER MAY FLOW PAST LOWEST LAYER
                                                   Max.-Head-Change                         Max.-Flux-Residual
  Residual-Control   Outer-Iter.   Inner-Iter.     Column Row Layer    Maximum-Head-Change  Column Row Layer    Maximum-Flux-Residual          L2-NORM 
          0                 1           5             5   59     1       0.2933972956E+01      69   28    1        -0.4160478490E+02      0.4514047549E+03
          0                 2           5            48   21     1       0.1676251796E+01      63   38    1         0.1128715753E+03      0.1934142475E+03
          0                 3           3            64   38     1       0.6582100220E-01      64   38    1         0.9280036826E+02      0.1430008881E+03
          0                 4           3            63   38     1       0.7782237865E-01      63   38    1         0.1099828036E+03      0.1561745628E+03
          0                 5           3            64   38     1       0.3551912782E-01      64   38    1         0.5031979217E+02      0.6298393454E+02
          0                 6           2            64   38     1       0.1045806634E-01      64   38    1         0.1486494720E+02      0.1740513169E+02
          0                 7           2            64   38     1       0.2353450809E-02      64   38    1         0.3351495150E+01      0.4030429666E+01
          0                 8           1            64   38     1       0.4461421177E-03      64   38    1         0.6359621666E+00      0.9871901359E+00

    ------------------------------------------------
       NWT REQUIRED            8 OUTER ITERATIONS 
       AND A TOTAL OF         24 INNER ITERATIONS.
    ------------------------------------------------

 NO OUTPUT CONTROL FOR STRESS PERIOD    9   TIME STEP   17
 ***WARNING***NUZTOP IS 3 AND ALL LAYERS  IN ROW           39  AND COLUMN           76  ARE INACTIVE.
 UNSATURATED FLOW WILL NOT BE ADDED TO ANY LAYER-- SOME WATER MAY FLOW PAST LOWEST LAYER
 ***WARNING***NUZTOP IS 3 AND ALL LAYERS  IN ROW           40  AND COLUMN           76  ARE INACTIVE.
 UNSATURATED FLOW WILL NOT BE ADDED TO ANY LAYER-- SOME WATER MAY FLOW PAST LOWEST LAYER
                                                   Max.-Head-Change                         Max.-Flux-Residual
  Residual-Control   Outer-Iter.   Inner-Iter.     Column Row Layer    Maximum-Head-Change  Column Row Layer    Maximum-Flux-Residual          L2-NORM 
          0                 1           5            30   27     1       0.2553158429E+01      69   29    1         0.5881921122E+02      0.3609857128E+03
          0                 2           5            60   47     1       0.1712708116E+01      69   30    1         0.1080821365E+03      0.2159809386E+03
          0                 3           3            69   30     1      -0.5846851069E-01      69   30    1        -0.1042520995E+03      0.1376010537E+03
          0                 4           3            64   38     1       0.3785874679E-01      69   30    1         0.6127348292E+02      0.9809066222E+02
          0                 5           3            64   38     1       0.1642867346E-01      64   38    1         0.2327959164E+02      0.2958543860E+02
          0                 6           2            64   38     1       0.4585755617E-02      64   38    1         0.6518613353E+01      0.7769062562E+01
          0                 7           1            64   38     1       0.9853240574E-03      64   38    1         0.1403359244E+01      0.1844084903E+01

    ------------------------------------------------
       NWT REQUIRED            7 OUTER ITERATIONS 
       AND A TOTAL OF         22 INNER ITERATIONS.
    ------------------------------------------------

 NO OUTPUT CONTROL FOR STRESS PERIOD    9   TIME STEP   18
 ***WARNING***NUZTOP IS 3 AND ALL LAYERS  IN ROW           39  AND COLUMN           76  ARE INACTIVE.
 UNSATURATED FLOW WILL NOT BE ADDED TO ANY LAYER-- SOME WATER MAY FLOW PAST LOWEST LAYER
 ***WARNING***NUZTOP IS 3 AND ALL LAYERS  IN ROW           40  AND COLUMN           76  ARE INACTIVE.
 UNSATURATED FLOW WILL NOT BE ADDED TO ANY LAYER-- SOME WATER MAY FLOW PAST LOWEST LAYER
                                                   Max.-Head-Change                         Max.-Flux-Residual
  Residual-Control   Outer-Iter.   Inner-Iter.     Column Row Layer    Maximum-Head-Change  Column Row Layer    Maximum-Flux-Residual          L2-NORM 
          0                 1           5            53   27     1       0.1433080002E+01      69   30    1         0.5598977077E+02      0.2892478686E+03
          0                 2           4            25   32     1       0.1815280355E+01      25   32    1         0.2493861900E+02      0.6886079773E+02
          0                 3           2            72   61     1       0.7787292772E-02      64   38    1        -0.3321128257E+01      0.1803788799E+02
          0                 4           2             3   53     1      -0.1714864671E-02       3   53    1        -0.1117010875E+01      0.7668152760E+01
          0                 5           1             5   50     1      -0.8655886400E-03       5   50    1        -0.5635348230E+00      0.3583373913E+01

    ------------------------------------------------
       NWT REQUIRED            5 OUTER ITERATIONS 
       AND A TOTAL OF         14 INNER ITERATIONS.
    ------------------------------------------------

 NO OUTPUT CONTROL FOR STRESS PERIOD    9   TIME STEP   19
 ***WARNING***NUZTOP IS 3 AND ALL LAYERS  IN ROW           39  AND COLUMN           76  ARE INACTIVE.
 UNSATURATED FLOW WILL NOT BE ADDED TO ANY LAYER-- SOME WATER MAY FLOW PAST LOWEST LAYER
 ***WARNING***NUZTOP IS 3 AND ALL LAYERS  IN ROW           40  AND COLUMN           76  ARE INACTIVE.
 UNSATURATED FLOW WILL NOT BE ADDED TO ANY LAYER-- SOME WATER MAY FLOW PAST LOWEST LAYER
                                                   Max.-Head-Change                         Max.-Flux-Residual
  Residual-Control   Outer-Iter.   Inner-Iter.     Column Row Layer    Maximum-Head-Change  Column Row Layer    Maximum-Flux-Residual          L2-NORM 
          0                 1           5            68   51     1       0.7318028976E+00      39   60    1         0.4369020637E+02      0.2607400978E+03
          0                 2           5            67   50     1       0.6970765519E+00      63   38    1        -0.2156481958E+02      0.6188958658E+02
          0                 3           2            64   38     1      -0.6963759653E-02      64   38    1        -0.9856231612E+01      0.2266812228E+02
          0                 4           2            64   38     1      -0.2810787196E-02      64   38    1        -0.3981415612E+01      0.9452531348E+01
          0                 5           1            64   38     1      -0.9249908958E-03      64   38    1        -0.1312914527E+01      0.4003644893E+01

    ------------------------------------------------
       NWT REQUIRED            5 OUTER ITERATIONS 
       AND A TOTAL OF         15 INNER ITERATIONS.
    ------------------------------------------------

 NO OUTPUT CONTROL FOR STRESS PERIOD    9   TIME STEP   20
 ***WARNING***NUZTOP IS 3 AND ALL LAYERS  IN ROW           39  AND COLUMN           76  ARE INACTIVE.
 UNSATURATED FLOW WILL NOT BE ADDED TO ANY LAYER-- SOME WATER MAY FLOW PAST LOWEST LAYER
 ***WARNING***NUZTOP IS 3 AND ALL LAYERS  IN ROW           40  AND COLUMN           76  ARE INACTIVE.
 UNSATURATED FLOW WILL NOT BE ADDED TO ANY LAYER-- SOME WATER MAY FLOW PAST LOWEST LAYER
                                                   Max.-Head-Change                         Max.-Flux-Residual
  Residual-Control   Outer-Iter.   Inner-Iter.     Column Row Layer    Maximum-Head-Change  Column Row Layer    Maximum-Flux-Residual          L2-NORM 
          0                 1           6            52   57     1      -0.3577715099E+01      67   40    1        -0.2785838357E+02      0.4919454536E+03
          0                 2           5            28   34     1       0.8998853354E+00      28   34    1         0.1186568764E+04      0.2991006081E+04
          0                 3           3            68   54     1       0.1646868077E+00      63   38    1        -0.1145217802E+03      0.2340549332E+03
          0                 4           3            63   38     1      -0.9101370006E-01      63   38    1        -0.1286216535E+03      0.1835101653E+03
          0                 5           3            64   38     1      -0.4163913088E-01      64   38    1        -0.5899446271E+02      0.7408113944E+02
          0                 6           3            64   38     1      -0.1263081254E-01      64   38    1        -0.1795513184E+02      0.2091710417E+02
          0                 7           2            64   38     1      -0.2960919547E-02      64   38    1        -0.4217041314E+01      0.5225191497E+01
          0                 8           1            69   28     1      -0.6539252570E-03      69   28    1        -0.8754795996E+00      0.1426518133E+01

    ------------------------------------------------
       NWT REQUIRED            8 OUTER ITERATIONS 
       AND A TOTAL OF         26 INNER ITERATIONS.
    ------------------------------------------------

 NO OUTPUT CONTROL FOR STRESS PERIOD    9   TIME STEP   21
 ***WARNING***NUZTOP IS 3 AND ALL LAYERS  IN ROW           39  AND COLUMN           76  ARE INACTIVE.
 UNSATURATED FLOW WILL NOT BE ADDED TO ANY LAYER-- SOME WATER MAY FLOW PAST LOWEST LAYER
 ***WARNING***NUZTOP IS 3 AND ALL LAYERS  IN ROW           40  AND COLUMN           76  ARE INACTIVE.
 UNSATURATED FLOW WILL NOT BE ADDED TO ANY LAYER-- SOME WATER MAY FLOW PAST LOWEST LAYER
                                                   Max.-Head-Change                         Max.-Flux-Residual
  Residual-Control   Outer-Iter.   Inner-Iter.     Column Row Layer    Maximum-Head-Change  Column Row Layer    Maximum-Flux-Residual          L2-NORM 
          0                 1           5            52   57     1      -0.1698414798E+01      69   29    1        -0.5432988497E+02      0.5209616342E+03
          0                 2           4            30   27     1       0.9589246057E+00      30   27    1         0.6907339350E+03      0.1801081539E+04
          0                 3           3            30   27     1       0.6198479179E-01      30   27    1         0.4238923767E+02      0.1166298124E+03
          0                 4           3            63   38     1      -0.3772858303E-01      63   38    1        -0.5334282089E+02      0.7471757566E+02
          0                 5           3            64   38     1      -0.1847783517E-01      64   38    1        -0.2616646556E+02      0.3302914876E+02
          0                 6           2            64   38     1      -0.6003281079E-02      64   38    1        -0.8531914907E+01      0.1000717999E+02
          0                 7           2            64   38     1      -0.1482988166E-02      64   38    1        -0.2112205586E+01      0.2552317933E+01
          0                 8           1            64   38     1      -0.3079283686E-03      64   38    1        -0.4391632336E+00      0.7106896117E+00

    ------------------------------------------------
       NWT REQUIRED            8 OUTER ITERATIONS 
       AND A TOTAL OF         23 INNER ITERATIONS.
    ------------------------------------------------

 NO OUTPUT CONTROL FOR STRESS PERIOD    9   TIME STEP   22
 ***WARNING***NUZTOP IS 3 AND ALL LAYERS  IN ROW           39  AND COLUMN           76  ARE INACTIVE.
 UNSATURATED FLOW WILL NOT BE ADDED TO ANY LAYER-- SOME WATER MAY FLOW PAST LOWEST LAYER
 ***WARNING***NUZTOP IS 3 AND ALL LAYERS  IN ROW           40  AND COLUMN           76  ARE INACTIVE.
 UNSATURATED FLOW WILL NOT BE ADDED TO ANY LAYER-- SOME WATER MAY FLOW PAST LOWEST LAYER
                                                   Max.-Head-Change                         Max.-Flux-Residual
  Residual-Control   Outer-Iter.   Inner-Iter.     Column Row Layer    Maximum-Head-Change  Column Row Layer    Maximum-Flux-Residual          L2-NORM 
          0                 1           4            68   68     2      -0.8662875666E+00      46   43    1        -0.6838994326E+02      0.5766491826E+03
          0                 2           4            24   34     1       0.3942131704E+00      24   34    1         0.2721714744E+03      0.5539737127E+03
          0                 3           3            24   34     1       0.1572177701E-01      63   38    1        -0.1837872174E+02      0.3918466963E+02
          0                 4           3            63   38     1      -0.1678523302E-01      63   38    1        -0.2372990749E+02      0.3384867410E+02
          0                 5           2            64   38     1      -0.8435688301E-02      64   38    1        -0.1194386941E+02      0.1541416400E+02
          0                 6           2            64   38     1      -0.2816895999E-02      64   38    1        -0.4002964334E+01      0.4931137869E+01
          0                 7           1            64   38     1      -0.7111959376E-03      64   38    1        -0.1013089959E+01      0.1433298766E+01

    ------------------------------------------------
       NWT REQUIRED            7 OUTER ITERATIONS 
       AND A TOTAL OF         19 INNER ITERATIONS.
    ------------------------------------------------

 NO OUTPUT CONTROL FOR STRESS PERIOD    9   TIME STEP   23
 ***WARNING***NUZTOP IS 3 AND ALL LAYERS  IN ROW           39  AND COLUMN           76  ARE INACTIVE.
 UNSATURATED FLOW WILL NOT BE ADDED TO ANY LAYER-- SOME WATER MAY FLOW PAST LOWEST LAYER
 ***WARNING***NUZTOP IS 3 AND ALL LAYERS  IN ROW           40  AND COLUMN           76  ARE INACTIVE.
 UNSATURATED FLOW WILL NOT BE ADDED TO ANY LAYER-- SOME WATER MAY FLOW PAST LOWEST LAYER
                                                   Max.-Head-Change                         Max.-Flux-Residual
  Residual-Control   Outer-Iter.   Inner-Iter.     Column Row Layer    Maximum-Head-Change  Column Row Layer    Maximum-Flux-Residual          L2-NORM 
          0                 1           4             5   59     2      -0.6374016931E+00      69   28    1        -0.8231222609E+02      0.6159502773E+03
          0                 2           3            20   37     1       0.2289974650E+00      20   37    1         0.1586132927E+03      0.2801822295E+03
          0                 3           3            63   38     1      -0.1301980501E-01      63   38    1        -0.1838040247E+02      0.3477618665E+02
          0                 4           3            63   38     1      -0.1603687744E-01      63   38    1        -0.2266855347E+02      0.3272336402E+02
          0                 5           2            64   38     1      -0.8307988889E-02      64   38    1        -0.1176093180E+02      0.1535858217E+02
          0                 6           2            64   38     1      -0.2869754929E-02      64   38    1        -0.4077240188E+01      0.5092877868E+01
          0                 7           1            64   38     1      -0.7543495997E-03      64   38    1        -0.1074276209E+01      0.1531788605E+01

    ------------------------------------------------
       NWT REQUIRED            7 OUTER ITERATIONS 
       AND A TOTAL OF         18 INNER ITERATIONS.
    ------------------------------------------------

 NO OUTPUT CONTROL FOR STRESS PERIOD    9   TIME STEP   24
 ***WARNING***NUZTOP IS 3 AND ALL LAYERS  IN ROW           39  AND COLUMN           76  ARE INACTIVE.
 UNSATURATED FLOW WILL NOT BE ADDED TO ANY LAYER-- SOME WATER MAY FLOW PAST LOWEST LAYER
 ***WARNING***NUZTOP IS 3 AND ALL LAYERS  IN ROW           40  AND COLUMN           76  ARE INACTIVE.
 UNSATURATED FLOW WILL NOT BE ADDED TO ANY LAYER-- SOME WATER MAY FLOW PAST LOWEST LAYER
                                                   Max.-Head-Change                         Max.-Flux-Residual
  Residual-Control   Outer-Iter.   Inner-Iter.     Column Row Layer    Maximum-Head-Change  Column Row Layer    Maximum-Flux-Residual          L2-NORM 
          0                 1           5            52   57     1       0.7125101408E+00      46   43    1        -0.8479045159E+02      0.5620698052E+03
          0                 2           4            69   49     1       0.2474521364E+00      63   38    1         0.2934072259E+02      0.6620668142E+02
          0                 3           3            64   38     1       0.1664158702E-01      64   38    1         0.2346905148E+02      0.4040552727E+02
          0                 4           3            63   38     1       0.1774362439E-01      63   38    1         0.2506785452E+02      0.3691482116E+02
          0                 5           2            64   38     1       0.8334902270E-02      64   38    1         0.1180926823E+02      0.1522769552E+02
          0                 6           2            64   38     1       0.2595633261E-02      64   38    1         0.3688423908E+01      0.4752447534E+01
          0                 7           1            64   38     1       0.6360475327E-03      64   38    1         0.9053894986E+00      0.1463062030E+01

    ------------------------------------------------
       NWT REQUIRED            7 OUTER ITERATIONS 
       AND A TOTAL OF         20 INNER ITERATIONS.
    ------------------------------------------------

 NO OUTPUT CONTROL FOR STRESS PERIOD    9   TIME STEP   25
 ***WARNING***NUZTOP IS 3 AND ALL LAYERS  IN ROW           39  AND COLUMN           76  ARE INACTIVE.
 UNSATURATED FLOW WILL NOT BE ADDED TO ANY LAYER-- SOME WATER MAY FLOW PAST LOWEST LAYER
 ***WARNING***NUZTOP IS 3 AND ALL LAYERS  IN ROW           40  AND COLUMN           76  ARE INACTIVE.
 UNSATURATED FLOW WILL NOT BE ADDED TO ANY LAYER-- SOME WATER MAY FLOW PAST LOWEST LAYER
                                                   Max.-Head-Change                         Max.-Flux-Residual
  Residual-Control   Outer-Iter.   Inner-Iter.     Column Row Layer    Maximum-Head-Change  Column Row Layer    Maximum-Flux-Residual          L2-NORM 
          0                 1           5            52   57     1       0.2144265813E+01      69   28    1        -0.7887139542E+02      0.4535434550E+03
          0                 2           4            20   37     1       0.1185700460E+01      63   38    1         0.8193749503E+02      0.1408920693E+03
          0                 3           3            64   38     1       0.4785811474E-01      64   38    1         0.6747387245E+02      0.1017685004E+03
          0                 4           3            63   38     1       0.5306368751E-01      63   38    1         0.7497851994E+02      0.1069284147E+03
          0                 5           3            64   38     1       0.2542800004E-01      64   38    1         0.3601765529E+02      0.4533466337E+02
          0                 6           2            64   38     1       0.7924583422E-02      64   38    1         0.1126194343E+02      0.1329883162E+02
          0                 7           2            64   38     1       0.1894309647E-02      64   38    1         0.2697310914E+01      0.3302161774E+01
          0                 8           1            64   38     1       0.3818023088E-03      64   38    1         0.5442543247E+00      0.8801621073E+00

    ------------------------------------------------
       NWT REQUIRED            8 OUTER ITERATIONS 
       AND A TOTAL OF         23 INNER ITERATIONS.
    ------------------------------------------------

 NO OUTPUT CONTROL FOR STRESS PERIOD    9   TIME STEP   26
 ***WARNING***NUZTOP IS 3 AND ALL LAYERS  IN ROW           39  AND COLUMN           76  ARE INACTIVE.
 UNSATURATED FLOW WILL NOT BE ADDED TO ANY LAYER-- SOME WATER MAY FLOW PAST LOWEST LAYER
 ***WARNING***NUZTOP IS 3 AND ALL LAYERS  IN ROW           40  AND COLUMN           76  ARE INACTIVE.
 UNSATURATED FLOW WILL NOT BE ADDED TO ANY LAYER-- SOME WATER MAY FLOW PAST LOWEST LAYER
                                                   Max.-Head-Change                         Max.-Flux-Residual
  Residual-Control   Outer-Iter.   Inner-Iter.     Column Row Layer    Maximum-Head-Change  Column Row Layer    Maximum-Flux-Residual          L2-NORM 
          0                 1           4             6   58     1       0.8615657955E+00      69   29    1        -0.3772714486E+02      0.3537539430E+03
          0                 2           4            24   34     1       0.7063735987E+00      24   34    1         0.9991906252E+01      0.5009013870E+02
          0                 3           2            24   34     2       0.6604237528E-02       4   51    1        -0.2306309891E+01      0.1829980506E+02
          0                 4           2             4   51     1      -0.1808110788E-02      69   29    1        -0.1378149733E+01      0.8051965645E+01
          0                 5           1             4   51     1      -0.9222048993E-03      69   29    1        -0.6379899827E+00      0.3777441281E+01

    ------------------------------------------------
       NWT REQUIRED            5 OUTER ITERATIONS 
       AND A TOTAL OF         13 INNER ITERATIONS.
    ------------------------------------------------

 NO OUTPUT CONTROL FOR STRESS PERIOD    9   TIME STEP   27
 ***WARNING***NUZTOP IS 3 AND ALL LAYERS  IN ROW           39  AND COLUMN           76  ARE INACTIVE.
 UNSATURATED FLOW WILL NOT BE ADDED TO ANY LAYER-- SOME WATER MAY FLOW PAST LOWEST LAYER
 ***WARNING***NUZTOP IS 3 AND ALL LAYERS  IN ROW           40  AND COLUMN           76  ARE INACTIVE.
 UNSATURATED FLOW WILL NOT BE ADDED TO ANY LAYER-- SOME WATER MAY FLOW PAST LOWEST LAYER
                                                   Max.-Head-Change                         Max.-Flux-Residual
  Residual-Control   Outer-Iter.   Inner-Iter.     Column Row Layer    Maximum-Head-Change  Column Row Layer    Maximum-Flux-Residual          L2-NORM 
          0                 1           5            52   57     1      -0.7411149182E+00      69   29    1        -0.3917752557E+02      0.3886509718E+03
          0                 2           3            52   57     1      -0.5501902829E-01      63   38    1        -0.3211781414E+02      0.6919809178E+02
          0                 3           3            64   38     1      -0.1869288144E-01      64   38    1        -0.2634382478E+02      0.4407771355E+02
          0                 4           3            63   38     1      -0.2064452955E-01      63   38    1        -0.2917064757E+02      0.4228459592E+02
          0                 5           2            64   38     1      -0.1012351074E-01      64   38    1        -0.1433584521E+02      0.1850012992E+02
          0                 6           2            64   38     1      -0.3266179271E-02      64   38    1        -0.4641265802E+01      0.5756866027E+01
          0                 7           1            64   38     1      -0.8061959900E-03      64   38    1        -0.1148191503E+01      0.1641795486E+01

    ------------------------------------------------
       NWT REQUIRED            7 OUTER ITERATIONS 
       AND A TOTAL OF         19 INNER ITERATIONS.
    ------------------------------------------------

 NO OUTPUT CONTROL FOR STRESS PERIOD    9   TIME STEP   28
 ***WARNING***NUZTOP IS 3 AND ALL LAYERS  IN ROW           39  AND COLUMN           76  ARE INACTIVE.
 UNSATURATED FLOW WILL NOT BE ADDED TO ANY LAYER-- SOME WATER MAY FLOW PAST LOWEST LAYER
 ***WARNING***NUZTOP IS 3 AND ALL LAYERS  IN ROW           40  AND COLUMN           76  ARE INACTIVE.
 UNSATURATED FLOW WILL NOT BE ADDED TO ANY LAYER-- SOME WATER MAY FLOW PAST LOWEST LAYER
                                                   Max.-Head-Change                         Max.-Flux-Residual
  Residual-Control   Outer-Iter.   Inner-Iter.     Column Row Layer    Maximum-Head-Change  Column Row Layer    Maximum-Flux-Residual          L2-NORM 
          0                 1           5             5   59     1       0.8933145670E+00      69   29    1        -0.3303173116E+02      0.3595196194E+03
          0                 2           4            48   22     1       0.2834082342E+00      63   38    1         0.3735248221E+02      0.7681033260E+02
          0                 3           3            64   38     1       0.2114164309E-01      64   38    1         0.2980809775E+02      0.4870320964E+02
          0                 4           3            63   38     1       0.2408552600E-01      63   38    1         0.3403288565E+02      0.4878779429E+02
          0                 5           2            64   38     1       0.1107921655E-01      64   38    1         0.1569264550E+02      0.1993160088E+02
          0                 6           2            64   38     1       0.3350684498E-02      64   38    1         0.4760276336E+01      0.5877512098E+01
          0                 7           1            64   38     1       0.7848429707E-03      64   38    1         0.1117040601E+01      0.1630345061E+01

    ------------------------------------------------
       NWT REQUIRED            7 OUTER ITERATIONS 
       AND A TOTAL OF         20 INNER ITERATIONS.
    ------------------------------------------------

 NO OUTPUT CONTROL FOR STRESS PERIOD    9   TIME STEP   29
 ***WARNING***NUZTOP IS 3 AND ALL LAYERS  IN ROW           39  AND COLUMN           76  ARE INACTIVE.
 UNSATURATED FLOW WILL NOT BE ADDED TO ANY LAYER-- SOME WATER MAY FLOW PAST LOWEST LAYER
 ***WARNING***NUZTOP IS 3 AND ALL LAYERS  IN ROW           40  AND COLUMN           76  ARE INACTIVE.
 UNSATURATED FLOW WILL NOT BE ADDED TO ANY LAYER-- SOME WATER MAY FLOW PAST LOWEST LAYER
                                                   Max.-Head-Change                         Max.-Flux-Residual
  Residual-Control   Outer-Iter.   Inner-Iter.     Column Row Layer    Maximum-Head-Change  Column Row Layer    Maximum-Flux-Residual          L2-NORM 
          0                 1           5            52   57     1       0.2862356008E+01      48   21    1         0.2730789171E+02      0.4191287526E+03
          0                 2           5            48   21     1       0.1542771370E+01      63   38    1         0.1238174335E+03      0.2120695568E+03
          0                 3           3            64   38     1       0.6722390154E-01      64   38    1         0.9480904276E+02      0.1468449766E+03
          0                 4           3            63   38     1       0.6677721709E-01      63   38    1         0.9431427786E+02      0.1368281560E+03
          0                 5           3            64   38     1       0.2967044967E-01      64   38    1         0.4204196525E+02      0.5268201223E+02
          0                 6           2            64   38     1       0.8423588089E-02      64   38    1         0.1197393114E+02      0.1418674280E+02
          0                 7           2            64   38     1       0.1839727872E-02      64   38    1         0.2619939757E+01      0.3286362290E+01
          0                 8           1            64   38     1       0.3396581860E-03      64   38    1         0.4841652102E+00      0.8544487081E+00

    ------------------------------------------------
       NWT REQUIRED            8 OUTER ITERATIONS 
       AND A TOTAL OF         24 INNER ITERATIONS.
    ------------------------------------------------

 NO OUTPUT CONTROL FOR STRESS PERIOD    9   TIME STEP   30
 ***WARNING***NUZTOP IS 3 AND ALL LAYERS  IN ROW           39  AND COLUMN           76  ARE INACTIVE.
 UNSATURATED FLOW WILL NOT BE ADDED TO ANY LAYER-- SOME WATER MAY FLOW PAST LOWEST LAYER
 ***WARNING***NUZTOP IS 3 AND ALL LAYERS  IN ROW           40  AND COLUMN           76  ARE INACTIVE.
 UNSATURATED FLOW WILL NOT BE ADDED TO ANY LAYER-- SOME WATER MAY FLOW PAST LOWEST LAYER
                                                   Max.-Head-Change                         Max.-Flux-Residual
  Residual-Control   Outer-Iter.   Inner-Iter.     Column Row Layer    Maximum-Head-Change  Column Row Layer    Maximum-Flux-Residual          L2-NORM 
          0                 1           5            52   57     1      -0.2426198648E+01      69   29    1         0.1189328474E+03      0.4289022757E+03
          0                 2           3            59   36     1       0.1673068772E+00      63   38    1        -0.1276203463E+03      0.2116803726E+03
          0                 3           3            64   38     1      -0.6834354543E-01      64   38    1        -0.9635438206E+02      0.1500356676E+03
          0                 4           3            63   38     1      -0.6867021729E-01      63   38    1        -0.9698958018E+02      0.1402173206E+03
          0                 5           3            64   38     1      -0.3154525815E-01      64   38    1        -0.4467787912E+02      0.5629325916E+02
          0                 6           2            64   38     1      -0.9527981531E-02      64   38    1        -0.1353574449E+02      0.1617443781E+02
          0                 7           2            64   38     1      -0.2228322468E-02      64   38    1        -0.3171103325E+01      0.4051026496E+01
          0                 8           1            69   29     1      -0.4946227389E-03      69   29    1        -0.6690288411E+00      0.1123518932E+01

    ------------------------------------------------
       NWT REQUIRED            8 OUTER ITERATIONS 
       AND A TOTAL OF         22 INNER ITERATIONS.
    ------------------------------------------------

 NO OUTPUT CONTROL FOR STRESS PERIOD    9   TIME STEP   31



 STREAM LISTING     PERIOD      9   STEP       31

 LAYER ROW COL. STREAM  RCH.   FLOW INTO    STREAM     FLOW OUT OF   OVRLND.    DIRECT     STREAM      STREAM      STREAM     STREAM  STREAMBED   FLOW TO   CHNG. UNSAT. 
                SEG.NO.  NO.   STRM. RCH.    LOSS       STRM. RCH.   RUNOFF     PRECIP       ET         HEAD        DEPTH      WIDTH  CONDCTNC.   WAT. TAB.

   1   18   62     1     1    0.0000E+00  8.7022E-01   0.0000E+00  8.702E-01  0.000E+00  0.000E+00  2.07300E+03  2.398E-05  3.000E+00  1.909E+03  0.000E+00  0.000E+00
   1   19   63     1     2    0.0000E+00 -2.9924E+01   3.0794E+01  8.702E-01  0.000E+00  0.000E+00  2.06300E+03  9.206E-04  3.000E+00  1.909E+03  0.000E+00  0.000E+00
   1   20   64     1     3    3.0794E+01 -5.7841E+01   8.9505E+01  8.702E-01  0.000E+00  0.000E+00  2.05400E+03  2.280E-03  3.000E+00  1.630E+03  0.000E+00  0.000E+00
   1   21   64     1     4    8.9505E+01 -6.1183E+01   1.5156E+02  8.702E-01  0.000E+00  0.000E+00  2.05100E+03  4.260E-03  3.000E+00  1.630E+03  0.000E+00  0.000E+00
   1   22   65     1     5    1.5156E+02 -2.9059E+00   1.5533E+02  8.702E-01  0.000E+00  0.000E+00  2.04800E+03  4.194E-03  3.000E+00  9.546E+02  0.000E+00  0.000E+00
   1   20   66     2     1    0.0000E+00 -1.7367E+01   1.7367E+01  0.000E+00  0.000E+00  0.000E+00  2.05300E+03  9.242E-04  3.000E+00  1.909E+03  0.000E+00  0.000E+00
   1   21   65     2     2    1.7367E+01  1.7367E+01   0.0000E+00  0.000E+00  0.000E+00  0.000E+00  2.05100E+03  3.166E-04  3.000E+00  1.630E+03  0.000E+00  0.000E+00
   1   22   65     2     3    0.0000E+00 -4.6641E+00   4.6641E+00  0.000E+00  0.000E+00  0.000E+00  2.04800E+03  3.282E-04  3.000E+00  6.750E+02  0.000E+00  0.000E+00
   1   22   65     3     1    1.6000E+02 -2.2584E+00   1.6226E+02  0.000E+00  0.000E+00  0.000E+00  2.04800E+03  3.892E-03  3.000E+00  6.750E+02  0.000E+00  0.000E+00
   1   23   65     3     2    1.6226E+02 -5.9150E+01   2.2141E+02  0.000E+00  0.000E+00  0.000E+00  2.04501E+03  6.931E-03  3.000E+00  1.630E+03  0.000E+00  0.000E+00
   1   24   66     3     3    2.2141E+02  5.4190E+00   2.1599E+02  0.000E+00  0.000E+00  0.000E+00  2.04526E+03  2.613E-01  3.000E+00  1.909E+03  0.000E+00  0.000E+00
   1   25   67     3     4    2.1599E+02  2.4823E+01   1.9116E+02  0.000E+00  0.000E+00  0.000E+00  2.04501E+03  7.541E-03  3.000E+00  1.909E+03  0.000E+00  0.000E+00
   1   26   68     3     5    1.9116E+02  5.4738E-01   1.9062E+02  0.000E+00  0.000E+00  0.000E+00  2.04201E+03  6.347E-03  3.000E+00  1.630E+03  0.000E+00  0.000E+00
   1   27   68     3     6    1.9062E+02  8.4135E+01   1.0648E+02  0.000E+00  0.000E+00  0.000E+00  2.04100E+03  4.837E-03  3.000E+00  1.630E+03  0.000E+00  0.000E+00
   1   28   69     3     7    1.0648E+02  9.7776E+01   8.7071E+00  0.000E+00  0.000E+00  0.000E+00  2.03600E+03  2.235E-03  3.000E+00  1.630E+03  9.840E+01 -6.204E-01
   1   29   69     3     8    8.7071E+00  8.7071E+00   0.0000E+00  0.000E+00  0.000E+00  0.000E+00  2.02900E+03  1.527E-04  3.000E+00  1.350E+03  0.000E+00  0.000E+00
   1   30   69     3     9    0.0000E+00  0.0000E+00   0.0000E+00  0.000E+00  0.000E+00  0.000E+00  2.02300E+03  0.000E+00  3.000E+00  1.630E+03  0.000E+00  0.000E+00
   1   31   70     3    10    0.0000E+00 -9.1850E+01   9.1850E+01  0.000E+00  0.000E+00  0.000E+00  2.01100E+03  1.717E-03  3.000E+00  1.630E+03  0.000E+00  0.000E+00
   1   32   70     3    11    9.1850E+01 -1.8672E+02   2.7857E+02  0.000E+00  0.000E+00  0.000E+00  2.00500E+03  4.779E-03  3.000E+00  1.350E+03  0.000E+00  0.000E+00
   1   33   70     3    12    2.7857E+02  2.9190E+01   2.4938E+02  0.000E+00  0.000E+00  0.000E+00  2.00300E+03  4.825E-03  3.000E+00  1.630E+03  0.000E+00  0.000E+00
   1   34   69     3    13    2.4938E+02 -9.2131E+00   2.5860E+02  0.000E+00  0.000E+00  0.000E+00  1.98600E+03  4.111E-03  3.000E+00  1.630E+03  0.000E+00  0.000E+00
   1   35   69     3    14    2.5860E+02 -2.2714E+01   2.8131E+02  0.000E+00  0.000E+00  0.000E+00  1.97300E+03  4.622E-03  3.000E+00  1.350E+03  0.000E+00  0.000E+00
   1   36   69     3    15    2.8131E+02  1.7907E+01   2.6340E+02  0.000E+00  0.000E+00  0.000E+00  1.96701E+03  5.092E-03  3.000E+00  1.350E+03  0.000E+00  0.000E+00
   1   37   69     3    16    2.6340E+02  2.3756E+01   2.3965E+02  0.000E+00  0.000E+00  0.000E+00  1.95900E+03  4.855E-03  3.000E+00  1.350E+03  0.000E+00  0.000E+00
   1   38   69     3    17    2.3965E+02  2.9925E+01   2.0972E+02  0.000E+00  0.000E+00  0.000E+00  1.95300E+03  4.909E-03  3.000E+00  1.630E+03  0.000E+00  0.000E+00
   1   39   70     3    18    2.0972E+02  3.5486E+00   2.0617E+02  0.000E+00  0.000E+00  0.000E+00  1.94600E+03  4.196E-03  3.000E+00  9.546E+02  0.000E+00  0.000E+00
   1   25   49     4     1    0.0000E+00 -1.2542E+02   1.2542E+02  0.000E+00  0.000E+00  0.000E+00  2.03500E+03  2.073E-03  3.000E+00  1.909E+03  0.000E+00  0.000E+00
   1   26   50     4     2    1.2542E+02 -7.6349E+01   2.0177E+02  0.000E+00  0.000E+00  0.000E+00  2.02600E+03  3.998E-03  3.000E+00  1.909E+03  0.000E+00  0.000E+00
   1   27   51     4     3    2.0177E+02 -5.9553E+01   2.6132E+02  0.000E+00  0.000E+00  0.000E+00  2.01901E+03  5.120E-03  3.000E+00  1.630E+03  0.000E+00  0.000E+00
   1   28   51     4     4    2.6132E+02 -6.9714E+01   3.3103E+02  0.000E+00  0.000E+00  0.000E+00  2.01401E+03  6.268E-03  3.000E+00  1.630E+03  0.000E+00  0.000E+00
   1   29   52     4     5    3.3103E+02 -3.4048E+01   3.6508E+02  0.000E+00  0.000E+00  0.000E+00  2.00901E+03  6.905E-03  3.000E+00  1.630E+03  0.000E+00  0.000E+00
   1   30   52     4     6    3.6508E+02 -8.5509E-01   3.6594E+02  0.000E+00  0.000E+00  0.000E+00  2.00401E+03  6.720E-03  3.000E+00  1.350E+03  0.000E+00  0.000E+00
   1   31   52     4     7    3.6594E+02 -7.4622E+00   3.7340E+02  0.000E+00  0.000E+00  0.000E+00  1.99901E+03  7.530E-03  3.000E+00  1.350E+03  0.000E+00  0.000E+00
   1   32   52     4     8    3.7340E+02  1.3545E+01   3.5985E+02  0.000E+00  0.000E+00  0.000E+00  1.99701E+03  7.617E-03  3.000E+00  1.630E+03  0.000E+00  0.000E+00
   1   33   53     4     9    3.5985E+02  2.0170E+01   3.3968E+02  0.000E+00  0.000E+00  0.000E+00  1.99101E+03  7.263E-03  3.000E+00  1.909E+03  0.000E+00  0.000E+00
   1   34   54     4    10    3.3968E+02  2.8296E+01   3.1139E+02  0.000E+00  0.000E+00  0.000E+00  1.98701E+03  7.180E-03  3.000E+00  1.909E+03  0.000E+00  0.000E+00
   1   35   55     4    11    3.1139E+02  4.7564E+01   2.6382E+02  0.000E+00  0.000E+00  0.000E+00  1.98201E+03  5.985E-03  3.000E+00  1.630E+03  0.000E+00  0.000E+00
   1   36   55     4    12    2.6382E+02 -5.2840E+01   3.1667E+02  0.000E+00  0.000E+00  0.000E+00  1.97601E+03  5.290E-03  3.000E+00  6.750E+02  0.000E+00  0.000E+00
   1   35   37     5     1    3.7837E+03 -5.7308E+01   3.8411E+03  0.000E+00  0.000E+00  0.000E+00  2.05402E+03  2.148E-02  3.000E+00  9.546E+02  0.000E+00  0.000E+00
   1   34   38     5     2    3.8411E+03 -1.0893E+02   3.9500E+03  0.000E+00  0.000E+00  0.000E+00  2.04603E+03  2.679E-02  3.000E+00  1.909E+03  0.000E+00  0.000E+00
   1   33   39     5     3    3.9500E+03 -2.2526E+02   4.1752E+03  0.000E+00  0.000E+00  0.000E+00  2.03803E+03  3.264E-02  3.000E+00  1.909E+03  0.000E+00  0.000E+00
   1   32   40     5     4    4.1752E+03  1.1920E+02   4.0560E+03  0.000E+00  0.000E+00  0.000E+00  2.03703E+03  3.250E-02  3.000E+00  1.630E+03  0.000E+00  0.000E+00
   1   32   41     5     5    4.0560E+03 -1.1900E+02   4.1750E+03  0.000E+00  0.000E+00  0.000E+00  2.03003E+03  2.720E-02  3.000E+00  1.350E+03  0.000E+00  0.000E+00
   1   32   42     5     6    4.1750E+03 -1.5169E+02   4.3267E+03  0.000E+00  0.000E+00  0.000E+00  2.02503E+03  3.260E-02  3.000E+00  1.350E+03  0.000E+00  0.000E+00
   1   32   43     5     7    4.3267E+03 -3.5873E+01   4.3626E+03  0.000E+00  0.000E+00  0.000E+00  2.02304E+03  3.660E-02  3.000E+00  1.630E+03  0.000E+00  0.000E+00
   1   33   44     5     8    4.3626E+03 -1.2007E+02   4.4827E+03  0.000E+00  0.000E+00  0.000E+00  2.01904E+03  3.704E-02  3.000E+00  1.909E+03  0.000E+00  0.000E+00
   1   34   45     5     9    4.4827E+03 -3.7548E+00   4.4864E+03  0.000E+00  0.000E+00  0.000E+00  2.01603E+03  3.422E-02  3.000E+00  1.630E+03  0.000E+00  0.000E+00
   1   34   46     5    10    4.4864E+03 -8.8038E+01   4.5745E+03  0.000E+00  0.000E+00  0.000E+00  2.01103E+03  3.141E-02  3.000E+00  1.350E+03  0.000E+00  0.000E+00
   1   34   47     5    11    4.5745E+03  1.0442E+01   4.5640E+03  0.000E+00  0.000E+00  0.000E+00  2.00702E+03  2.484E-02  3.000E+00  6.750E+02  0.000E+00  0.000E+00
   1   34   47     6     1    4.5726E+03  9.1706E+00   4.5634E+03  0.000E+00  0.000E+00  0.000E+00  2.00702E+03  2.296E-02  3.000E+00  6.750E+02  0.000E+00  0.000E+00
   1   34   48     6     2    4.5634E+03 -1.1199E+02   4.6754E+03  0.000E+00  0.000E+00  0.000E+00  2.00103E+03  3.011E-02  3.000E+00  1.630E+03  0.000E+00  0.000E+00
   1   35   49     6     3    4.6754E+03 -2.5038E+02   4.9258E+03  0.000E+00  0.000E+00  0.000E+00  1.99403E+03  3.240E-02  3.000E+00  1.630E+03  0.000E+00  0.000E+00
   1   35   50     6     4    4.9258E+03 -1.7795E+02   5.1037E+03  0.000E+00  0.000E+00  0.000E+00  1.99004E+03  3.982E-02  3.000E+00  1.350E+03  0.000E+00  0.000E+00
   1   35   51     6     5    5.1037E+03  4.8511E+01   5.0552E+03  0.000E+00  0.000E+00  0.000E+00  1.98904E+03  4.020E-02  3.000E+00  1.630E+03  0.000E+00  0.000E+00
   1   36   52     6     6    5.0552E+03 -1.1101E+02   5.1662E+03  0.000E+00  0.000E+00  0.000E+00  1.98404E+03  3.573E-02  3.000E+00  1.630E+03  0.000E+00  0.000E+00
   1   36   53     6     7    5.1662E+03 -2.1730E+02   5.3835E+03  0.000E+00  0.000E+00  0.000E+00  1.98005E+03  4.644E-02  3.000E+00  1.630E+03  0.000E+00  0.000E+00
   1   37   54     6     8    5.3835E+03 -2.9954E+01   5.4135E+03  0.000E+00  0.000E+00  0.000E+00  1.98005E+03  4.938E-02  3.000E+00  1.909E+03  0.000E+00  0.000E+00
   1   36   55     6     9    5.4135E+03 -4.3824E+01   5.4573E+03  0.000E+00  0.000E+00  0.000E+00  1.97604E+03  3.766E-02  3.000E+00  9.546E+02  0.000E+00  0.000E+00
   1   36   34     7     1    1.4521E+03 -4.5312E+01   1.4974E+03  0.000E+00  0.000E+00  0.000E+00  2.07701E+03  1.104E-02  3.000E+00  9.546E+02  0.000E+00  0.000E+00
   1   35   35     7     2    1.4974E+03 -8.3764E+01   1.5811E+03  0.000E+00  0.000E+00  0.000E+00  2.06701E+03  1.492E-02  3.000E+00  1.630E+03  0.000E+00  0.000E+00
   1   35   36     7     3    1.5811E+03  3.6564E+01   1.5446E+03  0.000E+00  0.000E+00  0.000E+00  2.06201E+03  1.485E-02  3.000E+00  1.350E+03  0.000E+00  0.000E+00
   1   35   37     7     4    1.5446E+03 -4.7352E+01   1.5919E+03  0.000E+00  0.000E+00  0.000E+00  2.05401E+03  1.136E-02  3.000E+00  6.750E+02  0.000E+00  0.000E+00
   1   52   49     8     1    0.0000E+00 -1.9118E+02   1.9118E+02  0.000E+00  0.000E+00  0.000E+00  2.12100E+03  2.751E-03  3.000E+00  1.909E+03  0.000E+00  0.000E+00
   1   51   48     8     2    1.9118E+02 -1.8625E+02   3.7743E+02  0.000E+00  0.000E+00  0.000E+00  2.11701E+03  8.442E-03  3.000E+00  1.909E+03  0.000E+00  0.000E+00
   1   50   47     8     3    3.7743E+02  9.7776E+01   2.7966E+02  0.000E+00  0.000E+00  0.000E+00  2.11701E+03  7.132E-03  3.000E+00  1.630E+03  9.775E+01  2.865E-02
   1   49   47     8     4    2.7966E+02 -1.9475E+02   4.7441E+02  0.000E+00  0.000E+00  0.000E+00  2.10901E+03  7.245E-03  3.000E+00  1.630E+03  0.000E+00  0.000E+00
   1   48   46     8     5    4.7441E+02  2.2739E+01   4.5167E+02  0.000E+00  0.000E+00  0.000E+00  2.10701E+03  1.079E-02  3.000E+00  1.630E+03  0.000E+00  0.000E+00
   1   47   46     8     6    4.5167E+02  9.5349E+01   3.5632E+02  0.000E+00  0.000E+00  0.000E+00  2.10501E+03  9.394E-03  3.000E+00  1.350E+03  0.000E+00  0.000E+00
   1   46   46     8     7    3.5632E+02  8.1000E+01   2.7532E+02  0.000E+00  0.000E+00  0.000E+00  2.10301E+03  7.176E-03  3.000E+00  1.350E+03  8.101E+01 -9.094E-03
   1   45   46     8     8    2.7532E+02  8.1000E+01   1.9432E+02  0.000E+00  0.000E+00  0.000E+00  2.09900E+03  4.879E-03  3.000E+00  1.350E+03  8.099E+01  1.172E-02
   1   44   46     8     9    1.9432E+02  8.1000E+01   1.1332E+02  0.000E+00  0.000E+00  0.000E+00  2.09100E+03  3.298E-03  3.000E+00  1.350E+03  8.086E+01  1.369E-01
   1   43   46     8    10    1.1332E+02  1.1332E+02   0.0000E+00  0.000E+00  0.000E+00  0.000E+00  2.08000E+03  6.177E-04  3.000E+00  1.350E+03  0.000E+00  0.000E+00
   1   42   46     8    11    0.0000E+00  0.0000E+00   0.0000E+00  0.000E+00  0.000E+00  0.000E+00  2.07200E+03  0.000E+00  3.000E+00  1.630E+03  0.000E+00  0.000E+00
   1   41   45     8    12    0.0000E+00 -7.8723E+01   7.8723E+01  0.000E+00  0.000E+00  0.000E+00  2.06000E+03  1.570E-03  3.000E+00  1.630E+03  0.000E+00  0.000E+00
   1   40   45     8    13    7.8723E+01  7.8723E+01   0.0000E+00  0.000E+00  0.000E+00  0.000E+00  2.05400E+03  5.441E-04  3.000E+00  1.350E+03  7.859E+01  1.328E-01
   1   39   45     8    14    0.0000E+00  0.0000E+00   0.0000E+00  0.000E+00  0.000E+00  0.000E+00  2.04600E+03  0.000E+00  3.000E+00  1.350E+03  4.780E+00 -4.705E+00
   1   38   45     8    15    0.0000E+00  0.0000E+00   0.0000E+00  0.000E+00  0.000E+00  0.000E+00  2.03500E+03  0.000E+00  3.000E+00  1.350E+03  0.000E+00  0.000E+00
   1   37   45     8    16    0.0000E+00  0.0000E+00   0.0000E+00  0.000E+00  0.000E+00  0.000E+00  2.02700E+03  0.000E+00  3.000E+00  1.630E+03  0.000E+00  0.000E+00
   1   36   46     8    17    0.0000E+00  0.0000E+00   0.0000E+00  0.000E+00  0.000E+00  0.000E+00  2.02100E+03  0.000E+00  3.000E+00  1.630E+03  0.000E+00  0.000E+00
   1   35   46     8    18    0.0000E+00  0.0000E+00   0.0000E+00  0.000E+00  0.000E+00  0.000E+00  2.01400E+03  0.000E+00  3.000E+00  1.630E+03  0.000E+00  0.000E+00
   1   34   47     8    19    0.0000E+00 -8.5745E+00   8.5745E+00  0.000E+00  0.000E+00  0.000E+00  2.00700E+03  3.921E-04  3.000E+00  9.546E+02  0.000E+00  0.000E+00
   1   37   26     9     1    0.0000E+00  0.0000E+00   0.0000E+00  0.000E+00  0.000E+00  0.000E+00  2.14700E+03  0.000E+00  3.000E+00  1.350E+03  0.000E+00  0.000E+00
   1   37   27     9     2    0.0000E+00 -4.9388E+01   4.9388E+01  0.000E+00  0.000E+00  0.000E+00  2.13400E+03  1.060E-03  3.000E+00  1.350E+03  0.000E+00  0.000E+00
   1   37   28     9     3    4.9388E+01 -1.1395E+02   1.6334E+02  0.000E+00  0.000E+00  0.000E+00  2.12500E+03  2.799E-03  3.000E+00  1.630E+03  0.000E+00  0.000E+00
   1   36   29     9     4    1.6334E+02  3.2393E+01   1.3095E+02  0.000E+00  0.000E+00  0.000E+00  2.11500E+03  3.454E-03  3.000E+00  1.630E+03  0.000E+00  0.000E+00
   1   36   30     9     5    1.3095E+02 -6.2299E+01   1.9325E+02  0.000E+00  0.000E+00  0.000E+00  2.10700E+03  3.519E-03  3.000E+00  1.350E+03  0.000E+00  0.000E+00
   1   36   31     9     6    1.9325E+02 -1.7701E+02   3.7025E+02  0.000E+00  0.000E+00  0.000E+00  2.09800E+03  4.993E-03  3.000E+00  1.350E+03  0.000E+00  0.000E+00
   1   36   32     9     7    3.7025E+02 -1.2466E+02   4.9491E+02  0.000E+00  0.000E+00  0.000E+00  2.09101E+03  6.721E-03  3.000E+00  1.350E+03  0.000E+00  0.000E+00
   1   36   33     9     8    4.9491E+02 -1.1808E+02   6.1299E+02  0.000E+00  0.000E+00  0.000E+00  2.08401E+03  7.796E-03  3.000E+00  1.350E+03  0.000E+00  0.000E+00
   1   36   34     9     9    6.1299E+02 -3.5135E+01   6.4812E+02  0.000E+00  0.000E+00  0.000E+00  2.07701E+03  6.457E-03  3.000E+00  6.750E+02  0.000E+00  0.000E+00
   1   58   37    10     1    0.0000E+00 -5.2192E+01   5.2192E+01  0.000E+00  0.000E+00  0.000E+00  2.15000E+03  1.817E-03  3.000E+00  1.350E+03  0.000E+00  0.000E+00
   1   57   37    10     2    5.2192E+01 -6.6476E+01   1.1867E+02  0.000E+00  0.000E+00  0.000E+00  2.14700E+03  3.308E-03  3.000E+00  1.630E+03  0.000E+00  0.000E+00
   1   56   38    10     3    1.1867E+02  8.5615E+00   1.1011E+02  0.000E+00  0.000E+00  0.000E+00  2.14300E+03  3.656E-03  3.000E+00  1.630E+03  0.000E+00  0.000E+00
   1   55   38    10     4    1.1011E+02 -1.5183E+02   2.6194E+02  0.000E+00  0.000E+00  0.000E+00  2.13800E+03  4.793E-03  3.000E+00  1.350E+03  0.000E+00  0.000E+00
   1   54   38    10     5    2.6194E+02 -9.2097E+01   3.5403E+02  0.000E+00  0.000E+00  0.000E+00  2.13501E+03  7.068E-03  3.000E+00  1.350E+03  0.000E+00  0.000E+00
   1   53   38    10     6    3.5403E+02 -8.1637E+01   4.3567E+02  0.000E+00  0.000E+00  0.000E+00  2.13201E+03  8.205E-03  3.000E+00  1.350E+03  0.000E+00  0.000E+00
   1   52   38    10     7    4.3567E+02 -1.4210E+02   5.7777E+02  0.000E+00  0.000E+00  0.000E+00  2.12901E+03  1.139E-02  3.000E+00  1.630E+03  0.000E+00  0.000E+00
   1   51   39    10     8    5.7777E+02  3.0889E+01   5.4688E+02  0.000E+00  0.000E+00  0.000E+00  2.12801E+03  1.212E-02  3.000E+00  1.630E+03  0.000E+00  0.000E+00
   1   50   39    10     9    5.4688E+02 -5.7958E+01   6.0484E+02  0.000E+00  0.000E+00  0.000E+00  2.12501E+03  1.039E-02  3.000E+00  1.630E+03  0.000E+00  0.000E+00
   1   49   38    10    10    6.0484E+02 -1.2910E+02   7.3394E+02  0.000E+00  0.000E+00  0.000E+00  2.12101E+03  1.193E-02  3.000E+00  1.909E+03  0.000E+00  0.000E+00
   1   48   37    10    11    7.3394E+02  3.9963E+01   6.9398E+02  0.000E+00  0.000E+00  0.000E+00  2.11801E+03  1.055E-02  3.000E+00  1.909E+03  0.000E+00  0.000E+00
   1   47   36    10    12    6.9398E+02 -3.1296E+02   1.0069E+03  0.000E+00  0.000E+00  0.000E+00  2.10901E+03  1.117E-02  3.000E+00  1.630E+03  0.000E+00  0.000E+00
   1   46   36    10    13    1.0069E+03 -1.0955E+02   1.1165E+03  0.000E+00  0.000E+00  0.000E+00  2.10601E+03  1.418E-02  3.000E+00  1.350E+03  0.000E+00  0.000E+00
   1   45   36    10    14    1.1165E+03 -1.4457E+02   1.2611E+03  0.000E+00  0.000E+00  0.000E+00  2.10202E+03  1.518E-02  3.000E+00  1.350E+03  0.000E+00  0.000E+00
   1   44   36    10    15    1.2611E+03 -7.2991E+01   1.3341E+03  0.000E+00  0.000E+00  0.000E+00  2.09902E+03  1.675E-02  3.000E+00  1.350E+03  0.000E+00  0.000E+00
   1   43   36    10    16    1.3341E+03  2.4944E+01   1.3091E+03  0.000E+00  0.000E+00  0.000E+00  2.09602E+03  1.587E-02  3.000E+00  1.630E+03  0.000E+00  0.000E+00
   1   42   37    10    17    1.3091E+03  9.7776E+01   1.2113E+03  0.000E+00  0.000E+00  0.000E+00  2.09001E+03  1.298E-02  3.000E+00  1.630E+03  9.770E+01  7.957E-02
   1   41   37    10    18    1.2113E+03 -2.0616E+02   1.4175E+03  0.000E+00  0.000E+00  0.000E+00  2.08001E+03  1.258E-02  3.000E+00  1.350E+03  0.000E+00  0.000E+00
   1   40   37    10    19    1.4175E+03 -3.0174E+02   1.7192E+03  0.000E+00  0.000E+00  0.000E+00  2.07402E+03  1.759E-02  3.000E+00  1.630E+03  0.000E+00  0.000E+00
   1   39   38    10    20    1.7192E+03 -3.4518E+00   1.7227E+03  0.000E+00  0.000E+00  0.000E+00  2.07102E+03  2.005E-02  3.000E+00  1.630E+03  0.000E+00  0.000E+00
   1   38   38    10    21    1.7227E+03  3.7988E+01   1.6847E+03  0.000E+00  0.000E+00  0.000E+00  2.06702E+03  1.791E-02  3.000E+00  1.630E+03  0.000E+00  0.000E+00
   1   37   37    10    22    1.6847E+03 -2.7347E+02   1.9582E+03  0.000E+00  0.000E+00  0.000E+00  2.06102E+03  1.864E-02  3.000E+00  1.630E+03  0.000E+00  0.000E+00
   1   36   37    10    23    1.9582E+03 -1.8906E+02   2.1472E+03  0.000E+00  0.000E+00  0.000E+00  2.05702E+03  2.106E-02  3.000E+00  1.350E+03  0.000E+00  0.000E+00
   1   35   37    10    24    2.1472E+03 -4.4596E+01   2.1918E+03  0.000E+00  0.000E+00  0.000E+00  2.05402E+03  1.544E-02  3.000E+00  6.750E+02  0.000E+00  0.000E+00
   1   36   55    11     1    5.7740E+03 -3.4895E+01   5.8089E+03  0.000E+00  0.000E+00  0.000E+00  1.97603E+03  3.188E-02  3.000E+00  6.750E+02  0.000E+00  0.000E+00
   1   36   56    11     2    5.8089E+03 -4.3010E+01   5.8519E+03  0.000E+00  0.000E+00  0.000E+00  1.97505E+03  5.376E-02  3.000E+00  1.630E+03  0.000E+00  0.000E+00
   1   37   57    11     3    5.8519E+03 -1.2043E+02   5.9723E+03  0.000E+00  0.000E+00  0.000E+00  1.97305E+03  5.421E-02  3.000E+00  1.630E+03  0.000E+00  0.000E+00
   1   37   58    11     4    5.9723E+03 -7.6970E+01   6.0493E+03  0.000E+00  0.000E+00  0.000E+00  1.97207E+03  7.194E-02  3.000E+00  1.350E+03  0.000E+00  0.000E+00
   1   37   59    11     5    6.0493E+03  2.0733E+01   6.0286E+03  0.000E+00  0.000E+00  0.000E+00  1.97206E+03  5.860E-02  3.000E+00  1.350E+03  0.000E+00  0.000E+00
   1   37   60    11     6    6.0286E+03  3.2100E+00   6.0253E+03  0.000E+00  0.000E+00  0.000E+00  1.97005E+03  4.705E-02  3.000E+00  1.630E+03  0.000E+00  0.000E+00
   1   38   61    11     7    6.0253E+03 -6.1119E+01   6.0865E+03  0.000E+00  0.000E+00  0.000E+00  1.96704E+03  4.265E-02  3.000E+00  1.630E+03  0.000E+00  0.000E+00
   1   38   62    11     8    6.0865E+03 -8.9783E+01   6.1762E+03  0.000E+00  0.000E+00  0.000E+00  1.96304E+03  3.902E-02  3.000E+00  6.750E+02  0.000E+00  0.000E+00
   1   51   11    12     1    0.0000E+00 -4.3551E+02   4.3551E+02  0.000E+00  0.000E+00  0.000E+00  2.38700E+03  4.315E-03  3.000E+00  1.909E+03  0.000E+00  0.000E+00
   1   50   12    12     2    4.3551E+02 -3.5696E+01   4.7121E+02  0.000E+00  0.000E+00  0.000E+00  2.37501E+03  6.387E-03  3.000E+00  1.630E+03  0.000E+00  0.000E+00
   1   49   12    12     3    4.7121E+02 -3.4914E+02   8.2035E+02  0.000E+00  0.000E+00  0.000E+00  2.36501E+03  8.252E-03  3.000E+00  1.630E+03  0.000E+00  0.000E+00
   1   48   13    12     4    8.2035E+02 -1.3790E+02   9.5825E+02  0.000E+00  0.000E+00  0.000E+00  2.35601E+03  1.073E-02  3.000E+00  1.630E+03  0.000E+00  0.000E+00
   1   48   14    12     5    9.5825E+02 -1.3914E+02   1.0974E+03  0.000E+00  0.000E+00  0.000E+00  2.35001E+03  1.148E-02  3.000E+00  1.630E+03  0.000E+00  0.000E+00
   1   47   15    12     6    1.0974E+03 -1.3633E+02   1.2337E+03  0.000E+00  0.000E+00  0.000E+00  2.34001E+03  1.263E-02  3.000E+00  1.630E+03  0.000E+00  0.000E+00
   1   47   16    12     7    1.2337E+03 -1.0472E+02   1.3384E+03  0.000E+00  0.000E+00  0.000E+00  2.33501E+03  1.470E-02  3.000E+00  1.630E+03  0.000E+00  0.000E+00
   1   46   17    12     8    1.3384E+03  9.8671E+01   1.2398E+03  0.000E+00  0.000E+00  0.000E+00  2.32901E+03  1.369E-02  3.000E+00  1.630E+03  0.000E+00  0.000E+00
   1   46   18    12     9    1.2398E+03  1.8649E+02   1.0533E+03  0.000E+00  0.000E+00  0.000E+00  2.32101E+03  1.039E-02  3.000E+00  1.350E+03  0.000E+00  0.000E+00
   1   46   19    12    10    1.0533E+03 -1.3900E+02   1.1923E+03  0.000E+00  0.000E+00  0.000E+00  2.30601E+03  1.167E-02  3.000E+00  1.350E+03  0.000E+00  0.000E+00
   1   46   20    12    11    1.1923E+03  9.7776E+01   1.0945E+03  0.000E+00  0.000E+00  0.000E+00  2.30601E+03  9.944E-03  3.000E+00  1.630E+03  9.772E+01  5.244E-02
   1   45   21    12    12    1.0945E+03 -2.4341E+01   1.1188E+03  0.000E+00  0.000E+00  0.000E+00  2.27401E+03  8.645E-03  3.000E+00  1.909E+03  0.000E+00  0.000E+00
   1   44   22    12    13    1.1188E+03 -1.1467E+02   1.2335E+03  0.000E+00  0.000E+00  0.000E+00  2.25001E+03  9.707E-03  3.000E+00  1.909E+03  0.000E+00  0.000E+00
   1   43   23    12    14    1.2335E+03  1.7395E+02   1.0596E+03  0.000E+00  0.000E+00  0.000E+00  2.23101E+03  9.627E-03  3.000E+00  1.909E+03  0.000E+00  0.000E+00
   1   42   24    12    15    1.0596E+03 -5.7122E+01   1.1167E+03  0.000E+00  0.000E+00  0.000E+00  2.20801E+03  9.745E-03  3.000E+00  1.630E+03  0.000E+00  0.000E+00
   1   42   25    12    16    1.1167E+03  6.0044E+00   1.1107E+03  0.000E+00  0.000E+00  0.000E+00  2.20001E+03  1.065E-02  3.000E+00  1.350E+03  0.000E+00  0.000E+00
   1   42   26    12    17    1.1107E+03  1.4136E+02   9.6932E+02  0.000E+00  0.000E+00  0.000E+00  2.18801E+03  9.052E-03  3.000E+00  1.350E+03  0.000E+00  0.000E+00
   1   42   27    12    18    9.6932E+02 -2.3694E+02   1.2063E+03  0.000E+00  0.000E+00  0.000E+00  2.17001E+03  9.395E-03  3.000E+00  1.350E+03  0.000E+00  0.000E+00
   1   42   28    12    19    1.2063E+03 -6.3612E+01   1.2699E+03  0.000E+00  0.000E+00  0.000E+00  2.15901E+03  1.086E-02  3.000E+00  1.630E+03  0.000E+00  0.000E+00
   1   41   29    12    20    1.2699E+03  1.7763E+02   1.0922E+03  0.000E+00  0.000E+00  0.000E+00  2.14201E+03  1.063E-02  3.000E+00  1.909E+03  0.000E+00  0.000E+00
   1   40   30    12    21    1.0922E+03  8.3300E+01   1.0089E+03  0.000E+00  0.000E+00  0.000E+00  2.12701E+03  1.043E-02  3.000E+00  1.909E+03  0.000E+00  0.000E+00
   1   39   31    12    22    1.0089E+03  1.1455E+02   8.9439E+02  0.000E+00  0.000E+00  0.000E+00  2.11501E+03  1.018E-02  3.000E+00  1.909E+03  1.144E+02  1.982E-01
   1   38   32    12    23    8.9439E+02  1.1455E+02   7.7984E+02  0.000E+00  0.000E+00  0.000E+00  2.10301E+03  9.204E-03  3.000E+00  1.909E+03  1.144E+02  1.879E-01
   1   37   33    12    24    7.7984E+02  2.4557E+01   7.5528E+02  0.000E+00  0.000E+00  0.000E+00  2.08901E+03  8.738E-03  3.000E+00  1.909E+03  0.000E+00  0.000E+00
   1   36   34    12    25    7.5528E+02 -4.8661E+01   8.0395E+02  0.000E+00  0.000E+00  0.000E+00  2.07701E+03  7.533E-03  3.000E+00  9.546E+02  0.000E+00  0.000E+00
   1   38   62    13     1    6.3381E+03 -9.5619E+01   6.4337E+03  0.000E+00  0.000E+00  0.000E+00  1.96303E+03  3.037E-02  3.000E+00  6.750E+02  0.000E+00  0.000E+00
   1   38   63    13     2    6.4337E+03 -1.2266E+01   6.4460E+03  0.000E+00  0.000E+00  0.000E+00  1.96499E+03  1.988E+00  3.000E+00  1.350E+03  0.000E+00  0.000E+00
   1   38   64    13     3    6.4460E+03  1.4519E+01   6.4315E+03  0.000E+00  0.000E+00  0.000E+00  1.96499E+03  1.988E+00  3.000E+00  1.350E+03  0.000E+00  0.000E+00
   1   38   65    13     4    6.4315E+03 -1.1421E+01   6.4429E+03  0.000E+00  0.000E+00  0.000E+00  1.96305E+03  5.392E-02  3.000E+00  1.350E+03  0.000E+00  0.000E+00
   1   38   66    13     5    6.4429E+03 -5.8195E+01   6.5011E+03  0.000E+00  0.000E+00  0.000E+00  1.96005E+03  4.641E-02  3.000E+00  1.350E+03  0.000E+00  0.000E+00
   1   38   67    13     6    6.5011E+03 -3.0180E+01   6.5313E+03  0.000E+00  0.000E+00  0.000E+00  1.95804E+03  4.457E-02  3.000E+00  1.630E+03  0.000E+00  0.000E+00
   1   39   68    13     7    6.5313E+03 -3.1634E+00   6.5344E+03  0.000E+00  0.000E+00  0.000E+00  1.95304E+03  4.011E-02  3.000E+00  1.630E+03  0.000E+00  0.000E+00
   1   39   69    13     8    6.5344E+03 -6.2320E+01   6.5968E+03  0.000E+00  0.000E+00  0.000E+00  1.94804E+03  4.232E-02  3.000E+00  1.350E+03  0.000E+00  0.000E+00
   1   39   70    13     9    6.5968E+03  2.4018E+01   6.5727E+03  0.000E+00  0.000E+00  0.000E+00  1.94604E+03  3.606E-02  3.000E+00  6.750E+02  0.000E+00  0.000E+00
   1   46   61    14     1    0.0000E+00  0.0000E+00   0.0000E+00  0.000E+00  0.000E+00  0.000E+00  2.01700E+03  0.000E+00  3.000E+00  1.350E+03  0.000E+00  0.000E+00
   1   45   61    14     2    0.0000E+00  0.0000E+00   0.0000E+00  0.000E+00  0.000E+00  0.000E+00  2.01000E+03  0.000E+00  3.000E+00  1.350E+03  0.000E+00  0.000E+00
   1   44   61    14     3    0.0000E+00  0.0000E+00   0.0000E+00  0.000E+00  0.000E+00  0.000E+00  2.00600E+03  0.000E+00  3.000E+00  1.350E+03  0.000E+00  0.000E+00
   1   43   61    14     4    0.0000E+00  0.0000E+00   0.0000E+00  0.000E+00  0.000E+00  0.000E+00  1.99900E+03  0.000E+00  3.000E+00  1.350E+03  0.000E+00  0.000E+00
   1   42   61    14     5    0.0000E+00  0.0000E+00   0.0000E+00  0.000E+00  0.000E+00  0.000E+00  1.99300E+03  0.000E+00  3.000E+00  1.350E+03  0.000E+00  0.000E+00
   1   41   61    14     6    0.0000E+00  0.0000E+00   0.0000E+00  0.000E+00  0.000E+00  0.000E+00  1.98500E+03  0.000E+00  3.000E+00  1.350E+03  0.000E+00  0.000E+00
   1   40   61    14     7    0.0000E+00  0.0000E+00   0.0000E+00  0.000E+00  0.000E+00  0.000E+00  1.97800E+03  0.000E+00  3.000E+00  1.350E+03  0.000E+00  0.000E+00
   1   39   61    14     8    0.0000E+00  0.0000E+00   0.0000E+00  0.000E+00  0.000E+00  0.000E+00  1.97300E+03  0.000E+00  3.000E+00  1.630E+03  0.000E+00  0.000E+00
   1   38   62    14     9    0.0000E+00 -1.6187E+02   1.6187E+02  0.000E+00  0.000E+00  0.000E+00  1.96300E+03  2.454E-03  3.000E+00  9.546E+02  0.000E+00  0.000E+00
   1   39   70    15     1    6.7789E+03  2.0310E+01   6.7586E+03  0.000E+00  0.000E+00  0.000E+00  1.94603E+03  3.057E-02  3.000E+00  6.750E+02  0.000E+00  0.000E+00
   1   39   71    15     2    6.7586E+03 -8.3928E+01   6.8425E+03  0.000E+00  0.000E+00  0.000E+00  1.94205E+03  5.059E-02  3.000E+00  1.630E+03  0.000E+00  0.000E+00
   1   40   72    15     3    6.8425E+03 -4.4775E+00   6.8470E+03  0.000E+00  0.000E+00  0.000E+00  1.94105E+03  5.430E-02  3.000E+00  1.630E+03  0.000E+00  0.000E+00
   1   40   73    15     4    6.8470E+03 -2.6502E+01   6.8735E+03  0.000E+00  0.000E+00  0.000E+00  1.93805E+03  4.806E-02  3.000E+00  1.350E+03  0.000E+00  0.000E+00
   1   40   74    15     5    6.8735E+03 -5.7619E+00   6.8793E+03  0.000E+00  0.000E+00  0.000E+00  1.93605E+03  5.146E-02  3.000E+00  1.350E+03  0.000E+00  0.000E+00
   1   40   75    15     6    6.8793E+03  3.6413E+00   6.8756E+03  0.000E+00  0.000E+00  0.000E+00  1.93405E+03  4.557E-02  3.000E+00  6.750E+02  0.000E+00  0.000E+00
   1   40   75    16     1    7.4609E+03  5.9133E-01   7.4603E+03  0.000E+00  0.000E+00  0.000E+00  1.93404E+03  4.105E-02  3.000E+00  6.750E+02  0.000E+00  0.000E+00
   1   40   76    16     2    7.4603E+03  0.0000E+00   7.4603E+03  0.000E+00  0.000E+00  0.000E+00  1.93306E+03  5.891E-02  3.000E+00  0.000E+00  0.000E+00  0.000E+00
   1   55   73    17     1    0.0000E+00  0.0000E+00   0.0000E+00  0.000E+00  0.000E+00  0.000E+00  2.04100E+03  0.000E+00  3.000E+00  1.350E+03  0.000E+00  0.000E+00
   1   54   73    17     2    0.0000E+00  0.0000E+00   0.0000E+00  0.000E+00  0.000E+00  0.000E+00  2.02900E+03  0.000E+00  3.000E+00  1.350E+03  0.000E+00  0.000E+00
   1   53   73    17     3    0.0000E+00  0.0000E+00   0.0000E+00  0.000E+00  0.000E+00  0.000E+00  2.01700E+03  0.000E+00  3.000E+00  1.350E+03  0.000E+00  0.000E+00
   1   52   73    17     4    0.0000E+00 -2.6462E+01   2.6462E+01  0.000E+00  0.000E+00  0.000E+00  2.01000E+03  8.023E-04  3.000E+00  1.630E+03  0.000E+00  0.000E+00
   1   51   72    17     5    2.6462E+01 -2.2425E+02   2.5071E+02  0.000E+00  0.000E+00  0.000E+00  1.99800E+03  3.389E-03  3.000E+00  1.630E+03  0.000E+00  0.000E+00
   1   50   72    17     6    2.5071E+02  1.3432E+00   2.4937E+02  0.000E+00  0.000E+00  0.000E+00  1.99301E+03  5.066E-03  3.000E+00  1.350E+03  0.000E+00  0.000E+00
   1   49   72    17     7    2.4937E+02 -5.9325E+01   3.0869E+02  0.000E+00  0.000E+00  0.000E+00  1.98601E+03  5.166E-03  3.000E+00  1.350E+03  0.000E+00  0.000E+00
   1   48   72    17     8    3.0869E+02 -8.6217E+01   3.9491E+02  0.000E+00  0.000E+00  0.000E+00  1.97901E+03  5.937E-03  3.000E+00  1.350E+03  0.000E+00  0.000E+00
   1   47   72    17     9    3.9491E+02 -1.5559E+02   5.5049E+02  0.000E+00  0.000E+00  0.000E+00  1.97201E+03  7.248E-03  3.000E+00  1.350E+03  0.000E+00  0.000E+00
   1   46   72    17    10    5.5049E+02  9.5267E-01   5.4954E+02  0.000E+00  0.000E+00  0.000E+00  1.96601E+03  8.131E-03  3.000E+00  1.350E+03  0.000E+00  0.000E+00
   1   45   72    17    11    5.4954E+02  1.4345E+01   5.3520E+02  0.000E+00  0.000E+00  0.000E+00  1.96001E+03  8.146E-03  3.000E+00  1.630E+03  0.000E+00  0.000E+00
   1   44   73    17    12    5.3520E+02  5.0849E-02   5.3515E+02  0.000E+00  0.000E+00  0.000E+00  1.95201E+03  8.262E-03  3.000E+00  1.630E+03  0.000E+00  0.000E+00
   1   43   73    17    13    5.3515E+02 -2.1111E+01   5.5626E+02  0.000E+00  0.000E+00  0.000E+00  1.94701E+03  9.139E-03  3.000E+00  1.350E+03  0.000E+00  0.000E+00
   1   42   73    17    14    5.5626E+02  1.8446E+01   5.3781E+02  0.000E+00  0.000E+00  0.000E+00  1.94401E+03  9.348E-03  3.000E+00  1.630E+03  0.000E+00  0.000E+00
   1   41   74    17    15    5.3781E+02 -1.8369E+01   5.5618E+02  0.000E+00  0.000E+00  0.000E+00  1.93801E+03  9.497E-03  3.000E+00  1.909E+03  0.000E+00  0.000E+00
   1   40   75    17    16    5.5618E+02 -2.9053E+01   5.8523E+02  0.000E+00  0.000E+00  0.000E+00  1.93401E+03  9.742E-03  3.000E+00  9.546E+02  0.000E+00  0.000E+00
   1   37   55    18     1    0.0000E+00  0.0000E+00   0.0000E+00  0.000E+00  0.000E+00  0.000E+00  2.00700E+03  0.000E+00  3.000E+00  1.630E+03  0.000E+00  0.000E+00
   1   36   54    19     1    0.0000E+00  0.0000E+00   0.0000E+00  0.000E+00  0.000E+00  0.000E+00  2.00700E+03  0.000E+00  3.000E+00  1.630E+03  0.000E+00  0.000E+00



1
  VOLUMETRIC BUDGET FOR UNSATURATED ZONE BENEATH STREAMS AT END OF TIME STEP    31 STRESS PERIOD   9
  ------------------------------------------------------------------------------------------------

    CUMULATIVE VOLUMES             L**3    RATES FOR THIS TIME STEP         L**3/T
    ------------------                     ------------------------


          STREAM LOSS =       251695.3594            STREAM LOSS =          941.9283
    CHANGE IN STORAGE =           20.6269      CHANGE IN STORAGE =           -4.5066
       RECHARGE TO GW =       251673.2812         RECHARGE TO GW =          946.5097

             TOTAL IN =       251695.3594               TOTAL IN =          946.4350

            TOTAL OUT =       251693.9062              TOTAL OUT =          946.5097

             IN - OUT =            1.4531               IN - OUT =       -7.4707E-02

  PERCENT DISCREPANCY =            0.00      PERCENT DISCREPANCY =            -0.00



 ***WARNING***NUZTOP IS 3 AND ALL LAYERS  IN ROW           39  AND COLUMN           76  ARE INACTIVE.
 UNSATURATED FLOW WILL NOT BE ADDED TO ANY LAYER-- SOME WATER MAY FLOW PAST LOWEST LAYER
 ***WARNING***NUZTOP IS 3 AND ALL LAYERS  IN ROW           40  AND COLUMN           76  ARE INACTIVE.
 UNSATURATED FLOW WILL NOT BE ADDED TO ANY LAYER-- SOME WATER MAY FLOW PAST LOWEST LAYER


UNSATURATED ZONE PACKAGE VOLUMETRIC BUDGET FOR  TIME STEP    31 STRESS PERIOD    9
  ------------------------------------------------------------------------------



     CUMULATIVE VOLUMES      L**3       RATES FOR THIS TIME STEP      L**3/T
     ------------------                 ------------------------

           IN:                                      IN:
           ---                                      ---
        INFILTRATION =       26653.0419          INFILTRATION =       0.0000E+00

          OUT:                                     OUT:
          ----                                     ----
              UZF ET =      658120.3756                UZF ET =           0.0000
        UZF RECHARGE =     3180707.9139          UZF RECHARGE =        5269.7451

            IN - OUT =    -3812175.2476              IN - OUT =       -5269.7451

          STORAGE:                                 STORAGE:
          --------                                 --------
      STORAGE CHANGE =    -3810194.5509        STORAGE CHANGE =       -5269.7450

 PERCENT DISCREPANCY IS DIFFERENCE BETWEEN IN-OUT MINUS CHANGE IN STORAGE
 DIVIDED BY THE AVERAGE OF IN AND OUT TIMES 100

 PERCENT DISCREPANCY =          -0.01     PERCENT DISCREPANCY =           0.00






1
  VOLUMETRIC BUDGET FOR AGRICULTURAL FIELDS AT  END OF TIME STEP   31, STRESS PERIOD   9
  ------------------------------------------------------------------------------

     CUMULATIVE VOLUMES      L**3       RATES FOR THIS TIME STEP      L**3/T
     ------------------                 ------------------------

           IN:                                      IN:
           ---                                      ---
               AG WELLS  =           0.0000                 AG WELLS  =          -0.0000
      DIVERSION SEGMENTS =           0.0000        DIVERSION SEGMENTS =           0.0000
       IRRIGATION PONDS  =           0.0000         IRRIGATION PONDS  =           0.0000
           GW IRRIGATION =           0.0000             GW IRRIGATION =           0.0000
           SW IRRIGATION =           0.0000             SW IRRIGATION =           0.0000
        SYSTEM LOSSES GW =           0.0000          SYSTEM LOSSES GW =           0.0000
        SYSTEM LOSSES SW =           0.0000          SYSTEM LOSSES SW =          -0.0000

                TOTAL IN =           0.0000                  TOTAL IN =           0.0000

          OUT:                                     OUT:
          ----                                     ----
               AG WELLS  =           0.0000                 AG WELLS  =           0.0000
      DIVERSION SEGMENTS =           0.0000        DIVERSION SEGMENTS =           0.0000
       IRRIGATION PONDS  =           0.0000         IRRIGATION PONDS  =           0.0000
           GW IRRIGATION =           0.0000             GW IRRIGATION =           0.0000
           SW IRRIGATION =           0.0000             SW IRRIGATION =           0.0000
        SYSTEM LOSSES GW =           0.0000          SYSTEM LOSSES GW =           0.0000
        SYSTEM LOSSES SW =           0.0000          SYSTEM LOSSES SW =           0.0000

               TOTAL OUT =           0.0000                 TOTAL OUT =           0.0000

                IN - OUT =           0.0000                  IN - OUT =           0.0000

     PERCENT DISCREPANCY =           0.00         PERCENT DISCREPANCY =           0.00



1
  VOLUMETRIC BUDGET FOR ENTIRE MODEL AT END OF TIME STEP   31, STRESS PERIOD   9
  ------------------------------------------------------------------------------

     CUMULATIVE VOLUMES      L**3       RATES FOR THIS TIME STEP      L**3/T
     ------------------                 ------------------------

           IN:                                      IN:
           ---                                      ---
             STORAGE     =     1592891.1250               STORAGE     =       16291.8467
       CONSTANT HEAD     =         140.9404         CONSTANT HEAD     =           1.5351
      STREAM LEAKAGE     =      651759.1250        STREAM LEAKAGE     =        2946.4294
        UZF RECHARGE     =     3180723.5000          UZF RECHARGE     =        5269.7466
               GW ET     =           0.0000                 GW ET     =           0.0000
     SURFACE LEAKAGE     =           0.0000       SURFACE LEAKAGE     =           0.0000
           AG WELLS      =           0.0000             AG WELLS      =           0.0000

                TOTAL IN =     5425515.0000                  TOTAL IN =       24509.5566

          OUT:                                     OUT:
          ----                                     ----
             STORAGE     =     1176390.1250               STORAGE     =         124.2593
       CONSTANT HEAD     =        8567.3135         CONSTANT HEAD     =          32.8179
      STREAM LEAKAGE     =     3073441.0000        STREAM LEAKAGE     =       10397.7734
        UZF RECHARGE     =           0.0000          UZF RECHARGE     =           0.0000
               GW ET     =     1136429.3750                 GW ET     =       13865.2070
     SURFACE LEAKAGE     =       31714.0918       SURFACE LEAKAGE     =          92.6318
           AG WELLS      =           0.0000             AG WELLS      =           0.0000

               TOTAL OUT =     5426542.0000                 TOTAL OUT =       24512.6895

                IN - OUT =       -1027.0000                  IN - OUT =          -3.1328

     PERCENT DISCREPANCY =          -0.02         PERCENT DISCREPANCY =          -0.01






         TIME SUMMARY AT END OF TIME STEP   31 IN STRESS PERIOD    9
                    SECONDS     MINUTES      HOURS       DAYS        YEARS
                    -----------------------------------------------------------
   TIME STEP LENGTH  86400.      1440.0      24.000      1.0000     2.73785E-03
 STRESS PERIOD TIME 2.67840E+06  44640.      744.00      31.000     8.48734E-02
         TOTAL TIME 2.10816E+07 3.51360E+05  5856.0      244.00     0.66804    
1
1
                            STRESS PERIOD NO.   10, LENGTH =   30.00000    
                            -----------------------------------------------

                              NUMBER OF TIME STEPS =    30

                               MULTIPLIER FOR DELT =     1.000

                            INITIAL TIME STEP SIZE =   1.000000    
 USING INFILTRATION RATE FROM PREVIOUS STRESS 
 PERIOD.CURRENT PERIOD IS:           10

USING ET RATE FROM PREVIOUS STRESS PERIOD. CURRENT PERIOD IS:      10

 USING ET EXTINCTION DEPTH FROM PREVIOUS STRESS PERIOD. CURRENT PERIOD IS:      10

 USING EXTINCTION WATER CONTENT FROM PREVIOUS STRESS PERIOD. CURRENT PERIOD IS:      10

 PROCESSING AG STRESS PERIOD DATA

 READING AG STRESS PERIOD DATA

 READING IRRIGATION POND

 FILE UNIT   20 : ERROR CONVERTING "#IRRPONDID" TO AN INTEGER IN LINE:
 2735 2 0 0 #IRRPONDID NUMCELLPOND IRRPERIODPOND TRIGGERPERIODPOND                                                                                                                                       
